(PID.TID 0000.0001) 
(PID.TID 0000.0001) // ======================================================
(PID.TID 0000.0001) //                      MITgcm UV
(PID.TID 0000.0001) //                      =========
(PID.TID 0000.0001) // ======================================================
(PID.TID 0000.0001) // execution environment starting up...
(PID.TID 0000.0001) 
(PID.TID 0000.0001) // Build user:        jahn
(PID.TID 0000.0001) // Build host:        node204
(PID.TID 0000.0001) // Build date:        Fri May  2 12:30:53 EDT 2014
(PID.TID 0000.0001) 
(PID.TID 0000.0001) // =======================================================
(PID.TID 0000.0001) // Execution Environment parameter file "eedata"
(PID.TID 0000.0001) // =======================================================
(PID.TID 0000.0001) ># Example "eedata" file
(PID.TID 0000.0001) ># Lines beginning "#" are comments
(PID.TID 0000.0001) ># nTx - No. threads per process in X
(PID.TID 0000.0001) ># nTy - No. threads per process in Y
(PID.TID 0000.0001) > &EEPARMS
(PID.TID 0000.0001) > nTx=1,nTy=1
(PID.TID 0000.0001) > /
(PID.TID 0000.0001) ># Note: Some systems use & as the
(PID.TID 0000.0001) ># namelist terminator. Other systems
(PID.TID 0000.0001) ># use a / character (as shown here).
(PID.TID 0000.0001) 
(PID.TID 0000.0001) // =======================================================
(PID.TID 0000.0001) // Computational Grid Specification ( see files "SIZE.h" )
(PID.TID 0000.0001) //                                  ( and "eedata"       )
(PID.TID 0000.0001) // =======================================================
(PID.TID 0000.0001)      nPx =    1 ; /* No. processes in X */
(PID.TID 0000.0001)      nPy =    1 ; /* No. processes in Y */
(PID.TID 0000.0001)      nSx =    1 ; /* No. tiles in X per process */
(PID.TID 0000.0001)      nSy =    1 ; /* No. tiles in Y per process */
(PID.TID 0000.0001)      sNx =    1 ; /* Tile size in X */
(PID.TID 0000.0001)      sNy =    1 ; /* Tile size in Y */
(PID.TID 0000.0001)      OLx =    2 ; /* Tile overlap distance in X */
(PID.TID 0000.0001)      OLy =    2 ; /* Tile overlap distance in Y */
(PID.TID 0000.0001)      nTx =    1 ; /* No. threads in X per process */
(PID.TID 0000.0001)      nTy =    1 ; /* No. threads in Y per process */
(PID.TID 0000.0001)       Nr =   35 ; /* No. levels in the vertical   */
(PID.TID 0000.0001)       Nx =    1 ; /* Total domain size in X ( = nPx*nSx*sNx ) */
(PID.TID 0000.0001)       Ny =    1 ; /* Total domain size in Y ( = nPy*nSy*sNy ) */
(PID.TID 0000.0001)   nTiles =    1 ; /* Total no. tiles per process ( = nSx*nSy ) */
(PID.TID 0000.0001)   nProcs =    1 ; /* Total no. processes ( = nPx*nPy ) */
(PID.TID 0000.0001) nThreads =    1 ; /* Total no. threads per process ( = nTx*nTy ) */
(PID.TID 0000.0001) usingMPI =    F ; /* Flag used to control whether MPI is in use */
(PID.TID 0000.0001)                   /*  note: To execute a program with MPI calls */
(PID.TID 0000.0001)                   /*  it must be launched appropriately e.g     */
(PID.TID 0000.0001)                   /*  "mpirun -np 64 ......"                    */
(PID.TID 0000.0001) useCoupler=    F ;/* Flag used to control communications with   */
(PID.TID 0000.0001)                   /*  other model components, through a coupler */
(PID.TID 0000.0001) debugMode =    F ; /* print debug msg. (sequence of S/R calls)  */
(PID.TID 0000.0001) printMapIncludesZeros=    F ; /* print zeros in Std.Output maps */
(PID.TID 0000.0001) maxLengthPrt1D=   65 /* maxLength of 1D array printed to StdOut */
(PID.TID 0000.0001) 
(PID.TID 0000.0001) // ======================================================
(PID.TID 0000.0001) // Mapping of tiles to threads
(PID.TID 0000.0001) // ======================================================
(PID.TID 0000.0001) // -o- Thread   1, tiles (   1:   1,   1:   1)
(PID.TID 0000.0001) 
(PID.TID 0000.0001) // ======================================================
(PID.TID 0000.0001) // Tile <-> Tile connectvity table
(PID.TID 0000.0001) // ======================================================
(PID.TID 0000.0001) // Tile number: 000001 (process no. = 000000)
(PID.TID 0000.0001) //        WEST: Tile = 000001, Process = 000000, Comm = put
(PID.TID 0000.0001) //                bi = 000001, bj = 000001
(PID.TID 0000.0001) //        EAST: Tile = 000001, Process = 000000, Comm = put
(PID.TID 0000.0001) //                bi = 000001, bj = 000001
(PID.TID 0000.0001) //       SOUTH: Tile = 000001, Process = 000000, Comm = put
(PID.TID 0000.0001) //                bi = 000001, bj = 000001
(PID.TID 0000.0001) //       NORTH: Tile = 000001, Process = 000000, Comm = put
(PID.TID 0000.0001) //                bi = 000001, bj = 000001
(PID.TID 0000.0001) 
(PID.TID 0000.0001)  INI_PARMS: opening model parameter file "data"
(PID.TID 0000.0001)  OPEN_COPY_DATA_FILE: opening file data
(PID.TID 0000.0001) // =======================================================
(PID.TID 0000.0001) // Parameter file "data"
(PID.TID 0000.0001) // =======================================================
(PID.TID 0000.0001) >#
(PID.TID 0000.0001) ># ******************************
(PID.TID 0000.0001) ># Model parameters
(PID.TID 0000.0001) ># Continuous equation parameters
(PID.TID 0000.0001) ># ******************************
(PID.TID 0000.0001) >&PARM01
(PID.TID 0000.0001) >tRef= 26.5, 26.1, 26., 25.5, 25.4, 24.9, 24.5, 24.0, 23.7,
(PID.TID 0000.0001) >      23.3, 23.1, 22.8, 22.5, 22.1, 21.6, 20.6, 19.5, 18.4,
(PID.TID 0000.0001) >      17.3, 16.6, 15.5, 14.6, 13.8, 13.1, 11.6, 10.1, 7.7,
(PID.TID 0000.0001) >      5.3, 4.1, 3.7, 3.7, 3.4, 3.0, 2.8, 2.6,
(PID.TID 0000.0001) >sRef= 35*35.00,
(PID.TID 0000.0001) >no_slip_sides=.false.,
(PID.TID 0000.0001) >no_slip_bottom=.TRUE.,
(PID.TID 0000.0001) >viscAz=0.e0,
(PID.TID 0000.0001) >viscAh=0.e0,
(PID.TID 0000.0001) >diffKhT=1.E2,
(PID.TID 0000.0001) >diffKzT=1.E-4,
(PID.TID 0000.0001) >diffKhS=0.D0,
(PID.TID 0000.0001) >diffKzS=0.D0,
(PID.TID 0000.0001) >beta=1.E-11,
(PID.TID 0000.0001) >tAlpha=2.E-4,
(PID.TID 0000.0001) >sBeta =7.4E-4,
(PID.TID 0000.0001) >gravity=9.81,
(PID.TID 0000.0001) >gBaro=9.81,
(PID.TID 0000.0001) >rigidLid=.TRUE.,
(PID.TID 0000.0001) >implicitFreeSurface=.false.,
(PID.TID 0000.0001) >eosType='JMD95Z',
(PID.TID 0000.0001) >saltStepping=.FALSE.,
(PID.TID 0000.0001) >tempStepping=.TRUE.,
(PID.TID 0000.0001) >tempAdvection=.TRUE.,
(PID.TID 0000.0001) >momStepping=.FALSE.,
(PID.TID 0000.0001) >implicitDiffusion=.true.,
(PID.TID 0000.0001) >implicitViscosity=.true.,
(PID.TID 0000.0001) >allowFreezing=.false.,
(PID.TID 0000.0001) >useSingleCpuIO=.TRUE.,
(PID.TID 0000.0001) >useCDscheme=.FALSE.,
(PID.TID 0000.0001) >tempAdvScheme = 3,
(PID.TID 0000.0001) >saltAdvScheme = 3,
(PID.TID 0000.0001) >writebinaryprec=64,
(PID.TID 0000.0001) >/
(PID.TID 0000.0001) >
(PID.TID 0000.0001) ># **************************
(PID.TID 0000.0001) ># Elliptic solver parameters
(PID.TID 0000.0001) ># **************************
(PID.TID 0000.0001) >&PARM02
(PID.TID 0000.0001) >cg2dMaxIters=300,
(PID.TID 0000.0001) >cg2dTargetResidual=1.E-7,
(PID.TID 0000.0001) >/
(PID.TID 0000.0001) >
(PID.TID 0000.0001) ># ************************
(PID.TID 0000.0001) ># Time stepping parameters
(PID.TID 0000.0001) ># ************************
(PID.TID 0000.0001) >&PARM03
(PID.TID 0000.0001) > nIter0=000000,
(PID.TID 0000.0001) ># nTimeSteps=86400,
(PID.TID 0000.0001) ># nTimeSteps=4,
(PID.TID 0000.0001) > endtime=43200.,
(PID.TID 0000.0001) > deltaTmom=10800.,
(PID.TID 0000.0001) > deltaTtracer=10800.,
(PID.TID 0000.0001) > deltaTClock =10800.,
(PID.TID 0000.0001) >#benw set to 0. to switch off cAdj (?)
(PID.TID 0000.0001) > cAdjFreq=0.,
(PID.TID 0000.0001) > abEps=0.1,
(PID.TID 0000.0001) > pChkptFreq  = 31104000.0,
(PID.TID 0000.0001) > chkptFreq   = 31104000.0,
(PID.TID 0000.0001) > monitorFreq = 1.,
(PID.TID 0000.0001) > dumpFreq = 10800.,
(PID.TID 0000.0001) > dumpInitAndLast = .TRUE.,
(PID.TID 0000.0001) > taveFreq    = 86400.,
(PID.TID 0000.0001) > tauThetaClimRelax=259200.,
(PID.TID 0000.0001) > tauSaltClimRelax=0.,
(PID.TID 0000.0001) > periodicExternalForcing=.TRUE.,
(PID.TID 0000.0001) > externForcingPeriod=2592000.,
(PID.TID 0000.0001) > externForcingCycle=31104000.,
(PID.TID 0000.0001) >/
(PID.TID 0000.0001) >
(PID.TID 0000.0001) ># *******************
(PID.TID 0000.0001) ># Gridding parameters
(PID.TID 0000.0001) ># *******************
(PID.TID 0000.0001) >&PARM04
(PID.TID 0000.0001) >usingCartesianGrid=.FALSE.,
(PID.TID 0000.0001) >usingSphericalPolarGrid=.TRUE.,
(PID.TID 0000.0001) >delX=1*1.E0,
(PID.TID 0000.0001) >delY=1*1.E0,
(PID.TID 0000.0001) >delZ=14*10, 5*15, 4*20, 2*50, 100, 2*150, 200, 300, 3*400, 2*500,
(PID.TID 0000.0001) >xgOrigin=335,
(PID.TID 0000.0001) >ygOrigin=-18.,
(PID.TID 0000.0001) >/
(PID.TID 0000.0001) >
(PID.TID 0000.0001) ># **********
(PID.TID 0000.0001) ># Data Files
(PID.TID 0000.0001) ># **********
(PID.TID 0000.0001) >&PARM05
(PID.TID 0000.0001) >bathyFile=       '../input/input/bathyneg.bin',
(PID.TID 0000.0001) >hydrogThetaFile= '../input/input/loc1_temp_janprof.bin',
(PID.TID 0000.0001) >hydrogSaltFile=  '../input/input/salt_uniform.bin',
(PID.TID 0000.0001) >zonalWindFile=   '../input/input/wind_u_mon.bin',
(PID.TID 0000.0001) >meridWindFile=   '../input/input/wind_v_mon.bin',
(PID.TID 0000.0001) >thetaClimFile=   '../input/input/loc1_temp_monsurf.bin',
(PID.TID 0000.0001) >saltClimFile=    '',
(PID.TID 0000.0001) >surfQFile=       '',
(PID.TID 0000.0001) >EmPmRFile=       '',
(PID.TID 0000.0001) >/
(PID.TID 0000.0001) 
(PID.TID 0000.0001)  INI_PARMS ; starts to read PARM01
(PID.TID 0000.0001)  INI_PARMS ; read PARM01 : OK
(PID.TID 0000.0001)  INI_PARMS ; starts to read PARM02
(PID.TID 0000.0001)  INI_PARMS ; read PARM02 : OK
(PID.TID 0000.0001)  INI_PARMS ; starts to read PARM03
(PID.TID 0000.0001)  INI_PARMS ; read PARM03 : OK
(PID.TID 0000.0001)  INI_PARMS ; starts to read PARM04
(PID.TID 0000.0001)  INI_PARMS ; read PARM04 : OK
(PID.TID 0000.0001)  INI_PARMS ; starts to read PARM05
(PID.TID 0000.0001)  INI_PARMS ; read PARM05 : OK
(PID.TID 0000.0001)  INI_PARMS: finished reading file "data"
(PID.TID 0000.0001)  PACKAGES_BOOT: opening data.pkg
(PID.TID 0000.0001)  OPEN_COPY_DATA_FILE: opening file data.pkg
(PID.TID 0000.0001) // =======================================================
(PID.TID 0000.0001) // Parameter file "data.pkg"
(PID.TID 0000.0001) // =======================================================
(PID.TID 0000.0001) ># Packages
(PID.TID 0000.0001) > &PACKAGES
(PID.TID 0000.0001) > usePTRACERS=.TRUE.
(PID.TID 0000.0001) > useGCHEM=.TRUE.,
(PID.TID 0000.0001) > useDiagnostics=.TRUE.,
(PID.TID 0000.0001) > useKPP=.TRUE.,
(PID.TID 0000.0001) > useMNC=.TRUE.,
(PID.TID 0000.0001) > useEXF=.TRUE.,
(PID.TID 0000.0001) > /
(PID.TID 0000.0001) 
(PID.TID 0000.0001)  PACKAGES_BOOT: finished reading data.pkg
(PID.TID 0000.0001)  MNC_READPARMS: opening file 'data.mnc'
(PID.TID 0000.0001)  OPEN_COPY_DATA_FILE: opening file data.mnc
(PID.TID 0000.0001) // =======================================================
(PID.TID 0000.0001) // Parameter file "data.mnc"
(PID.TID 0000.0001) // =======================================================
(PID.TID 0000.0001) ># Example "data.mnc" file
(PID.TID 0000.0001) ># Lines beginning "#" are comments
(PID.TID 0000.0001) > &MNC_01
(PID.TID 0000.0001) ># mnc_echo_gvtypes=.FALSE.,
(PID.TID 0000.0001) ># mnc_use_indir=.FALSE.,
(PID.TID 0000.0001) ># mnc_use_outdir=.TRUE.,
(PID.TID 0000.0001) > mnc_outdir_str='dar1d_',
(PID.TID 0000.0001) > mnc_outdir_date=.TRUE.,
(PID.TID 0000.0001) > monitor_mnc=.FALSE.,
(PID.TID 0000.0001) > snapshot_mnc=.TRUE.,
(PID.TID 0000.0001) > timeave_mnc=.TRUE.,
(PID.TID 0000.0001) > pickup_read_mnc=.FALSE.,
(PID.TID 0000.0001) > pickup_write_mnc=.FALSE.,
(PID.TID 0000.0001) > /
(PID.TID 0000.0001) ># Note: Some systems use & as the
(PID.TID 0000.0001) ># namelist terminator. Other systems
(PID.TID 0000.0001) ># use a / character.
(PID.TID 0000.0001) 
(PID.TID 0000.0001)  MNC_READPARMS: finished reading data.mnc
(PID.TID 0000.0001) CAL_READPARMS: opening data.cal
(PID.TID 0000.0001)  OPEN_COPY_DATA_FILE: opening file data.cal
(PID.TID 0000.0001) // =======================================================
(PID.TID 0000.0001) // Parameter file "data.cal"
(PID.TID 0000.0001) // =======================================================
(PID.TID 0000.0001) >#
(PID.TID 0000.0001) ># *******************
(PID.TID 0000.0001) ># Calendar Parameters
(PID.TID 0000.0001) ># *******************
(PID.TID 0000.0001) > &CAL_NML
(PID.TID 0000.0001) > TheCalendar='model',
(PID.TID 0000.0001) > startDate_1=19920101,
(PID.TID 0000.0001) > startDate_2=000000,
(PID.TID 0000.0001) > calendarDumps = .TRUE.
(PID.TID 0000.0001) > /
(PID.TID 0000.0001) 
(PID.TID 0000.0001) CAL_READPARMS: finished reading data.cal
(PID.TID 0000.0001) EXF_READPARMS: opening data.exf
(PID.TID 0000.0001)  OPEN_COPY_DATA_FILE: opening file data.exf
(PID.TID 0000.0001) // =======================================================
(PID.TID 0000.0001) // Parameter file "data.exf"
(PID.TID 0000.0001) // =======================================================
(PID.TID 0000.0001) ># *********************
(PID.TID 0000.0001) ># External Forcing Data
(PID.TID 0000.0001) ># *********************
(PID.TID 0000.0001) >#
(PID.TID 0000.0001) > &EXF_NML_01
(PID.TID 0000.0001) > exf_albedo        = 0.15,
(PID.TID 0000.0001) > exf_iprec         = 32,
(PID.TID 0000.0001) > exf_yftype        = 'RL',
(PID.TID 0000.0001) > useExfYearlyFields= .TRUE.,
(PID.TID 0000.0001) > twoDigitYear      = .TRUE.,
(PID.TID 0000.0001) > useExfCheckRange  = .FALSE.,
(PID.TID 0000.0001) > /
(PID.TID 0000.0001) >#
(PID.TID 0000.0001) > &EXF_NML_02
(PID.TID 0000.0001) > /
(PID.TID 0000.0001) >#
(PID.TID 0000.0001) > &EXF_NML_03
(PID.TID 0000.0001) > /
(PID.TID 0000.0001) >#
(PID.TID 0000.0001) > &EXF_NML_04
(PID.TID 0000.0001) > /
(PID.TID 0000.0001) >#
(PID.TID 0000.0001) > &EXF_NML_OBCS
(PID.TID 0000.0001) > /
(PID.TID 0000.0001) 
(PID.TID 0000.0001) EXF_READPARMS: reading EXF_NML_01
(PID.TID 0000.0001) EXF_READPARMS: reading EXF_NML_02
(PID.TID 0000.0001) EXF_READPARMS: reading EXF_NML_03
(PID.TID 0000.0001) EXF_READPARMS: finished reading data.exf
(PID.TID 0000.0001)  KPP_INIT: opening data.kpp
(PID.TID 0000.0001)  OPEN_COPY_DATA_FILE: opening file data.kpp
(PID.TID 0000.0001) // =======================================================
(PID.TID 0000.0001) // Parameter file "data.kpp"
(PID.TID 0000.0001) // =======================================================
(PID.TID 0000.0001) ># KPP parameters
(PID.TID 0000.0001) > &KPP_PARM01
(PID.TID 0000.0001) > KPPmixingMaps   = .FALSE.,
(PID.TID 0000.0001) > KPPwriteState   = .TRUE.,
(PID.TID 0000.0001) > kpp_dumpFreq    = 2592000.
(PID.TID 0000.0001) > kpp_tavefreq    = 2592000.
(PID.TID 0000.0001) > Ricr            = 0.3559
(PID.TID 0000.0001) > Riinfty         = 0.6998
(PID.TID 0000.0001) > /
(PID.TID 0000.0001) 
(PID.TID 0000.0001)  KPP_INIT: finished reading data.kpp
(PID.TID 0000.0001)  PTRACERS_READPARMS: opening data.ptracers
(PID.TID 0000.0001)  OPEN_COPY_DATA_FILE: opening file data.ptracers
(PID.TID 0000.0001) // =======================================================
(PID.TID 0000.0001) // Parameter file "data.ptracers"
(PID.TID 0000.0001) // =======================================================
(PID.TID 0000.0001) > &PTRACERS_PARM01
(PID.TID 0000.0001) > PTRACERS_numInUse=80,
(PID.TID 0000.0001) > PTRACERS_Iter0= 0,
(PID.TID 0000.0001) >#
(PID.TID 0000.0001) > PTRACERS_advScheme= 80*33,
(PID.TID 0000.0001) > PTRACERS_diffKh=    80*0.E3,
(PID.TID 0000.0001) > PTRACERS_diffKr=    80*1.E-5,
(PID.TID 0000.0001) > PTRACERS_useGMRedi= 80*.FALSE. ,
(PID.TID 0000.0001) >#
(PID.TID 0000.0001) >       PTRACERS_names(1)= 'DIC',
(PID.TID 0000.0001) >       PTRACERS_names(2)= 'NH4',
(PID.TID 0000.0001) >       PTRACERS_names(3)= 'NO2',
(PID.TID 0000.0001) >       PTRACERS_names(4)= 'NO3',
(PID.TID 0000.0001) >       PTRACERS_names(5)= 'PO4',
(PID.TID 0000.0001) >       PTRACERS_names(6)= 'SiO2',
(PID.TID 0000.0001) >       PTRACERS_names(7)= 'FeT',
(PID.TID 0000.0001) >       PTRACERS_names(8)= 'DOC',
(PID.TID 0000.0001) >       PTRACERS_names(9)= 'DON',
(PID.TID 0000.0001) >       PTRACERS_names(10)= 'DOP',
(PID.TID 0000.0001) >       PTRACERS_names(11)= 'DOFe',
(PID.TID 0000.0001) >       PTRACERS_names(12)= 'POC',
(PID.TID 0000.0001) >       PTRACERS_names(13)= 'PON',
(PID.TID 0000.0001) >       PTRACERS_names(14)= 'POP',
(PID.TID 0000.0001) >       PTRACERS_names(15)= 'POSi',
(PID.TID 0000.0001) >       PTRACERS_names(16)= 'POFe',
(PID.TID 0000.0001) >       PTRACERS_names(17)= 'PIC',
(PID.TID 0000.0001) >       PTRACERS_names(18)= 'c01',
(PID.TID 0000.0001) >       PTRACERS_names(19)= 'c02',
(PID.TID 0000.0001) >       PTRACERS_names(20)= 'c03',
(PID.TID 0000.0001) >       PTRACERS_names(21)= 'c04',
(PID.TID 0000.0001) >       PTRACERS_names(22)= 'c05',
(PID.TID 0000.0001) >       PTRACERS_names(23)= 'c06',
(PID.TID 0000.0001) >       PTRACERS_names(24)= 'c07',
(PID.TID 0000.0001) >       PTRACERS_names(25)= 'c08',
(PID.TID 0000.0001) >       PTRACERS_names(26)= 'c09',
(PID.TID 0000.0001) >       PTRACERS_names(27)= 'c10',
(PID.TID 0000.0001) >       PTRACERS_names(28)= 'c11',
(PID.TID 0000.0001) >       PTRACERS_names(29)= 'c12',
(PID.TID 0000.0001) >       PTRACERS_names(30)= 'c13',
(PID.TID 0000.0001) >       PTRACERS_names(31)= 'c14',
(PID.TID 0000.0001) >       PTRACERS_names(32)= 'c15',
(PID.TID 0000.0001) >       PTRACERS_names(33)= 'c16',
(PID.TID 0000.0001) >       PTRACERS_names(34)= 'n01',
(PID.TID 0000.0001) >       PTRACERS_names(35)= 'n02',
(PID.TID 0000.0001) >       PTRACERS_names(36)= 'n03',
(PID.TID 0000.0001) >       PTRACERS_names(37)= 'n04',
(PID.TID 0000.0001) >       PTRACERS_names(38)= 'n05',
(PID.TID 0000.0001) >       PTRACERS_names(39)= 'n06',
(PID.TID 0000.0001) >       PTRACERS_names(40)= 'n07',
(PID.TID 0000.0001) >       PTRACERS_names(41)= 'n08',
(PID.TID 0000.0001) >       PTRACERS_names(42)= 'n09',
(PID.TID 0000.0001) >       PTRACERS_names(43)= 'n10',
(PID.TID 0000.0001) >       PTRACERS_names(44)= 'n11',
(PID.TID 0000.0001) >       PTRACERS_names(45)= 'n12',
(PID.TID 0000.0001) >       PTRACERS_names(46)= 'n13',
(PID.TID 0000.0001) >       PTRACERS_names(47)= 'n14',
(PID.TID 0000.0001) >       PTRACERS_names(48)= 'n15',
(PID.TID 0000.0001) >       PTRACERS_names(49)= 'n16',
(PID.TID 0000.0001) >       PTRACERS_names(50)= 'fe01',
(PID.TID 0000.0001) >       PTRACERS_names(51)= 'fe02',
(PID.TID 0000.0001) >       PTRACERS_names(52)= 'fe03',
(PID.TID 0000.0001) >       PTRACERS_names(53)= 'fe04',
(PID.TID 0000.0001) >       PTRACERS_names(54)= 'fe05',
(PID.TID 0000.0001) >       PTRACERS_names(55)= 'fe06',
(PID.TID 0000.0001) >       PTRACERS_names(56)= 'fe07',
(PID.TID 0000.0001) >       PTRACERS_names(57)= 'fe08',
(PID.TID 0000.0001) >       PTRACERS_names(58)= 'fe09',
(PID.TID 0000.0001) >       PTRACERS_names(59)= 'fe10',
(PID.TID 0000.0001) >       PTRACERS_names(60)= 'fe11',
(PID.TID 0000.0001) >       PTRACERS_names(61)= 'fe12',
(PID.TID 0000.0001) >       PTRACERS_names(62)= 'fe13',
(PID.TID 0000.0001) >       PTRACERS_names(63)= 'fe14',
(PID.TID 0000.0001) >       PTRACERS_names(64)= 'fe15',
(PID.TID 0000.0001) >       PTRACERS_names(65)= 'fe16',
(PID.TID 0000.0001) >       PTRACERS_names(66)= 'Chl01',
(PID.TID 0000.0001) >       PTRACERS_names(67)= 'Chl02',
(PID.TID 0000.0001) >       PTRACERS_names(68)= 'Chl03',
(PID.TID 0000.0001) >       PTRACERS_names(69)= 'Chl04',
(PID.TID 0000.0001) >       PTRACERS_names(70)= 'Chl05',
(PID.TID 0000.0001) >       PTRACERS_names(71)= 'Chl06',
(PID.TID 0000.0001) >       PTRACERS_names(72)= 'Chl07',
(PID.TID 0000.0001) >       PTRACERS_names(73)= 'Chl08',
(PID.TID 0000.0001) >       PTRACERS_names(74)= 'Chl09',
(PID.TID 0000.0001) >       PTRACERS_names(75)= 'Chl10',
(PID.TID 0000.0001) >       PTRACERS_names(76)= 'Chl11',
(PID.TID 0000.0001) >       PTRACERS_names(77)= 'Chl12',
(PID.TID 0000.0001) >       PTRACERS_names(78)= 'Chl13',
(PID.TID 0000.0001) >       PTRACERS_names(79)= 'Chl14',
(PID.TID 0000.0001) >       PTRACERS_names(80)= 'Chl15',
(PID.TID 0000.0001) >#
(PID.TID 0000.0001) > PTRACERS_units(1)='mmol C/m^3'
(PID.TID 0000.0001) > PTRACERS_units(2)='mmol N/m^3'
(PID.TID 0000.0001) > PTRACERS_units(3)='mmol N/m^3'
(PID.TID 0000.0001) > PTRACERS_units(4)='mmol N/m^3'
(PID.TID 0000.0001) > PTRACERS_units(5)='mmol P/m^3'
(PID.TID 0000.0001) > PTRACERS_units(6)='mmol Si/m^3'
(PID.TID 0000.0001) > PTRACERS_units(7)='mmol Fe/m^3'
(PID.TID 0000.0001) > PTRACERS_units(8)='mmol C/m^3'
(PID.TID 0000.0001) > PTRACERS_units(9)='mmol N/m^3'
(PID.TID 0000.0001) > PTRACERS_units(10)='mmol P/m^3'
(PID.TID 0000.0001) > PTRACERS_units(11)='mmol Fe/m^3'
(PID.TID 0000.0001) > PTRACERS_units(12)='mmol C/m^3'
(PID.TID 0000.0001) > PTRACERS_units(13)='mmol N/m^3'
(PID.TID 0000.0001) > PTRACERS_units(14)='mmol P/m^3'
(PID.TID 0000.0001) > PTRACERS_units(15)='mmol Si/m^3'
(PID.TID 0000.0001) > PTRACERS_units(16)='mmol Fe/m^3'
(PID.TID 0000.0001) > PTRACERS_units(17)='mmol C/m^3'
(PID.TID 0000.0001) > PTRACERS_units(18:33)=16*'mmol C/m^3'
(PID.TID 0000.0001) > PTRACERS_units(34:49)=16*'mmol N/m^3'
(PID.TID 0000.0001) > PTRACERS_units(50:65)=16*'mmol Fe/m^3'
(PID.TID 0000.0001) > PTRACERS_units(66:80)=15*'mg Chl a/m^3'
(PID.TID 0000.0001) >#
(PID.TID 0000.0001) > PTRACERS_initialFile(1)='../input/input/loc1_DIC_annprof.bin',
(PID.TID 0000.0001) > PTRACERS_initialFile(2)='../input/input/loc1_NH4_run83_janprof.bin',
(PID.TID 0000.0001) > PTRACERS_initialFile(3)='../input/input/loc1_NO2_run83_janprof.bin',
(PID.TID 0000.0001) > PTRACERS_initialFile(4)='../input/input/loc1_nitr_janprof.bin',
(PID.TID 0000.0001) >#PTRACERS_initialFile(5)='../input/input/loc1_PO4_run83_janprof.bin',
(PID.TID 0000.0001) >#PTRACERS_initialFile(6)='../input/input/loc1_SiO2_run83_janprof.bin',
(PID.TID 0000.0001) > PTRACERS_initialFile(7)='../input/input/loc1_FeT_run83_janprof.bin',
(PID.TID 0000.0001) > PTRACERS_initialFile(8)='../input/input/loc1_DOC_janprof.bin',
(PID.TID 0000.0001) > PTRACERS_initialFile(9)='../input/input/loc1_DON_run83_janprof.bin',
(PID.TID 0000.0001) >#PTRACERS_initialFile(10)='../input/input/loc1_DOP_run83_janprof.bin',
(PID.TID 0000.0001) > PTRACERS_initialFile(11)='../input/input/loc1_DOFe_run83_janprof.bin',
(PID.TID 0000.0001) > PTRACERS_initialFile(12)='../input/input/loc1_POC_janprof.bin',
(PID.TID 0000.0001) > PTRACERS_initialFile(13)='../input/input/loc1_PON_run83_janprof.bin',
(PID.TID 0000.0001) >#PTRACERS_initialFile(14)='../input/input/loc1_POP_run83_janprof.bin',
(PID.TID 0000.0001) >#PTRACERS_initialFile(15)='../input/input/loc1_POSi_run83_janprof.bin',
(PID.TID 0000.0001) > PTRACERS_initialFile(16)='../input/input/loc1_POFe_run83_janprof.bin',
(PID.TID 0000.0001) >#PTRACERS_initialFile(17)='../input/input/loc1_PIC_run83_janprof.bin',
(PID.TID 0000.0001) ># PTRACERS_initialFile(18)='../input/input/loc1_C_biomass_janprof.bin',
(PID.TID 0000.0001) ># PTRACERS_initialFile(19)='../input/input/loc1_C_biomass_janprof.bin',
(PID.TID 0000.0001) ># PTRACERS_initialFile(20)='../input/input/loc1_C_biomass_janprof.bin',
(PID.TID 0000.0001) ># PTRACERS_initialFile(21)='../input/input/loc1_C_biomass_janprof.bin',
(PID.TID 0000.0001) ># PTRACERS_initialFile(22)='../input/input/loc1_C_biomass_janprof.bin',
(PID.TID 0000.0001) ># PTRACERS_initialFile(23)='../input/input/loc1_C_biomass_janprof.bin',
(PID.TID 0000.0001) ># PTRACERS_initialFile(24)='../input/input/loc1_C_biomass_janprof.bin',
(PID.TID 0000.0001) ># PTRACERS_initialFile(25)='../input/input/loc1_C_biomass_janprof.bin',
(PID.TID 0000.0001) ># PTRACERS_initialFile(26)='../input/input/loc1_C_biomass_janprof.bin',
(PID.TID 0000.0001) ># PTRACERS_initialFile(27)='../input/input/loc1_C_biomass_janprof.bin',
(PID.TID 0000.0001) ># PTRACERS_initialFile(28)='../input/input/loc1_C_biomass_janprof.bin',
(PID.TID 0000.0001) ># PTRACERS_initialFile(29)='../input/input/loc1_C_biomass_janprof.bin',
(PID.TID 0000.0001) ># PTRACERS_initialFile(30)='../input/input/loc1_C_biomass_janprof.bin',
(PID.TID 0000.0001) ># PTRACERS_initialFile(31)='../input/input/loc1_C_biomass_janprof.bin',
(PID.TID 0000.0001) ># PTRACERS_initialFile(32)='../input/input/loc1_C_biomass_janprof.bin',
(PID.TID 0000.0001) ># PTRACERS_initialFile(33)='../input/input/loc1_C_biomass_janprof.bin',
(PID.TID 0000.0001) ># PTRACERS_initialFile(34)='../input/input/loc1_N_biomass_janprof.bin',
(PID.TID 0000.0001) ># PTRACERS_initialFile(35)='../input/input/loc1_N_biomass_janprof.bin',
(PID.TID 0000.0001) ># PTRACERS_initialFile(36)='../input/input/loc1_N_biomass_janprof.bin',
(PID.TID 0000.0001) ># PTRACERS_initialFile(37)='../input/input/loc1_N_biomass_janprof.bin',
(PID.TID 0000.0001) ># PTRACERS_initialFile(38)='../input/input/loc1_N_biomass_janprof.bin',
(PID.TID 0000.0001) ># PTRACERS_initialFile(39)='../input/input/loc1_N_biomass_janprof.bin',
(PID.TID 0000.0001) ># PTRACERS_initialFile(40)='../input/input/loc1_N_biomass_janprof.bin',
(PID.TID 0000.0001) ># PTRACERS_initialFile(41)='../input/input/loc1_N_biomass_janprof.bin',
(PID.TID 0000.0001) ># PTRACERS_initialFile(42)='../input/input/loc1_N_biomass_janprof.bin',
(PID.TID 0000.0001) ># PTRACERS_initialFile(43)='../input/input/loc1_N_biomass_janprof.bin',
(PID.TID 0000.0001) ># PTRACERS_initialFile(44)='../input/input/loc1_N_biomass_janprof.bin',
(PID.TID 0000.0001) ># PTRACERS_initialFile(45)='../input/input/loc1_N_biomass_janprof.bin',
(PID.TID 0000.0001) ># PTRACERS_initialFile(46)='../input/input/loc1_N_biomass_janprof.bin',
(PID.TID 0000.0001) ># PTRACERS_initialFile(47)='../input/input/loc1_N_biomass_janprof.bin',
(PID.TID 0000.0001) ># PTRACERS_initialFile(48)='../input/input/loc1_N_biomass_janprof.bin',
(PID.TID 0000.0001) ># PTRACERS_initialFile(49)='../input/input/loc1_N_biomass_janprof.bin',
(PID.TID 0000.0001) ># PTRACERS_initialFile(50)='../input/input/loc1_Fe_biomass_janprof.bin',
(PID.TID 0000.0001) ># PTRACERS_initialFile(51)='../input/input/loc1_Fe_biomass_janprof.bin',
(PID.TID 0000.0001) ># PTRACERS_initialFile(52)='../input/input/loc1_Fe_biomass_janprof.bin',
(PID.TID 0000.0001) ># PTRACERS_initialFile(53)='../input/input/loc1_Fe_biomass_janprof.bin',
(PID.TID 0000.0001) ># PTRACERS_initialFile(54)='../input/input/loc1_Fe_biomass_janprof.bin',
(PID.TID 0000.0001) ># PTRACERS_initialFile(55)='../input/input/loc1_Fe_biomass_janprof.bin',
(PID.TID 0000.0001) ># PTRACERS_initialFile(56)='../input/input/loc1_Fe_biomass_janprof.bin',
(PID.TID 0000.0001) ># PTRACERS_initialFile(57)='../input/input/loc1_Fe_biomass_janprof.bin',
(PID.TID 0000.0001) ># PTRACERS_initialFile(58)='../input/input/loc1_Fe_biomass_janprof.bin',
(PID.TID 0000.0001) ># PTRACERS_initialFile(59)='../input/input/loc1_Fe_biomass_janprof.bin',
(PID.TID 0000.0001) ># PTRACERS_initialFile(60)='../input/input/loc1_Fe_biomass_janprof.bin',
(PID.TID 0000.0001) ># PTRACERS_initialFile(61)='../input/input/loc1_Fe_biomass_janprof.bin',
(PID.TID 0000.0001) ># PTRACERS_initialFile(62)='../input/input/loc1_Fe_biomass_janprof.bin',
(PID.TID 0000.0001) ># PTRACERS_initialFile(63)='../input/input/loc1_Fe_biomass_janprof.bin',
(PID.TID 0000.0001) ># PTRACERS_initialFile(64)='../input/input/loc1_Fe_biomass_janprof.bin',
(PID.TID 0000.0001) ># PTRACERS_initialFile(65)='../input/input/loc1_Fe_biomass_janprof.bin',
(PID.TID 0000.0001) ># PTRACERS_initialFile(66)='../input/input/loc1_chlorophyll_janprof.bin',
(PID.TID 0000.0001) ># PTRACERS_initialFile(67)='../input/input/loc1_chlorophyll_janprof.bin',
(PID.TID 0000.0001) ># PTRACERS_initialFile(68)='../input/input/loc1_chlorophyll_janprof.bin',
(PID.TID 0000.0001) ># PTRACERS_initialFile(69)='../input/input/loc1_chlorophyll_janprof.bin',
(PID.TID 0000.0001) ># PTRACERS_initialFile(70)='../input/input/loc1_chlorophyll_janprof.bin',
(PID.TID 0000.0001) ># PTRACERS_initialFile(71)='../input/input/loc1_chlorophyll_janprof.bin',
(PID.TID 0000.0001) ># PTRACERS_initialFile(72)='../input/input/loc1_chlorophyll_janprof.bin',
(PID.TID 0000.0001) ># PTRACERS_initialFile(73)='../input/input/loc1_chlorophyll_janprof.bin',
(PID.TID 0000.0001) ># PTRACERS_initialFile(74)='../input/input/loc1_chlorophyll_janprof.bin',
(PID.TID 0000.0001) ># PTRACERS_initialFile(75)='../input/input/loc1_chlorophyll_janprof.bin',
(PID.TID 0000.0001) ># PTRACERS_initialFile(76)='../input/input/loc1_chlorophyll_janprof.bin',
(PID.TID 0000.0001) ># PTRACERS_initialFile(77)='../input/input/loc1_chlorophyll_janprof.bin',
(PID.TID 0000.0001) ># PTRACERS_initialFile(78)='../input/input/loc1_chlorophyll_janprof.bin',
(PID.TID 0000.0001) ># PTRACERS_initialFile(79)='../input/input/loc1_chlorophyll_janprof.bin',
(PID.TID 0000.0001) ># PTRACERS_initialFile(80)='../input/input/loc1_chlorophyll_janprof.bin',
(PID.TID 0000.0001) > PTRACERS_ref(1:5,18:33)= 80*1.0,
(PID.TID 0000.0001) > PTRACERS_ref(1:5,34:49)= 80*0.133333,
(PID.TID 0000.0001) > PTRACERS_ref(1:5,50:65)= 80*0.00001,
(PID.TID 0000.0001) > PTRACERS_ref(1:5,66:80)= 75*0.15,
(PID.TID 0000.0001) > /
(PID.TID 0000.0001) 
(PID.TID 0000.0001)  PTRACERS_READPARMS: finished reading data.ptracers
(PID.TID 0000.0001)  GCHEM_READPARMS: opening data.gchem
(PID.TID 0000.0001)  OPEN_COPY_DATA_FILE: opening file data.gchem
(PID.TID 0000.0001) // =======================================================
(PID.TID 0000.0001) // Parameter file "data.gchem"
(PID.TID 0000.0001) // =======================================================
(PID.TID 0000.0001) > &GCHEM_PARM01
(PID.TID 0000.0001) >  useDARWIN=.TRUE.,
(PID.TID 0000.0001) >  nsubtime=3,
(PID.TID 0000.0001) > /
(PID.TID 0000.0001) 
(PID.TID 0000.0001)  GCHEM_READPARMS: finished reading data.gchem
(PID.TID 0000.0001)  DARWIN_READPARMS: opening data.darwin
(PID.TID 0000.0001)  OPEN_COPY_DATA_FILE: opening file data.darwin
(PID.TID 0000.0001) // =======================================================
(PID.TID 0000.0001) // Parameter file "data.darwin"
(PID.TID 0000.0001) // =======================================================
(PID.TID 0000.0001) > &DARWIN_FORCING_PARAMS
(PID.TID 0000.0001) > /
(PID.TID 0000.0001) > &DARWIN_EXF_PARAMS
(PID.TID 0000.0001) > ironFile='../input/input/loc1_FeFlux_monsurf.bin',
(PID.TID 0000.0001) > PARFile='../input/input/loc1_PAR_monsurf.bin',
(PID.TID 0000.0001) > ironPeriod= -12.,
(PID.TID 0000.0001) > PARPeriod= -12.,
(PID.TID 0000.0001) > darwin_inscal_iron= 1000.,
(PID.TID 0000.0001) > darwin_inscal_PAR= 11.574074074074,
(PID.TID 0000.0001) >#darwin_PO4_fluxFile= '../input/input/ann_nphos_flux.bin',
(PID.TID 0000.0001) >#darwin_NO3_fluxFile= '../input/input/ann_nnitr_flux.bin',
(PID.TID 0000.0001) >#darwin_Si_fluxFile= '../input/input/ann_nsil_flux.bin',
(PID.TID 0000.0001) > /
(PID.TID 0000.0001) > &DARWIN_PARAMS
(PID.TID 0000.0001) > darwin_seed= 11231,
(PID.TID 0000.0001) > darwin_allometric= .TRUE.,
(PID.TID 0000.0001) > KDOC=  2.3148148148148148e-07,  ! .02/day
(PID.TID 0000.0001) > KDON=  2.3148148148148148e-07,
(PID.TID 0000.0001) > KDOP=  2.3148148148148148e-07,
(PID.TID 0000.0001) > KDOFe= 2.3148148148148148e-07,
(PID.TID 0000.0001) > KPOC=  4.6296296296296297e-07,  ! .04/day
(PID.TID 0000.0001) > KPON=  4.6296296296296297e-07,
(PID.TID 0000.0001) > KPOP=  4.6296296296296297e-07,
(PID.TID 0000.0001) > KPOFe= 4.6296296296296297e-07,
(PID.TID 0000.0001) > KPOSi= 3.819444444444444e-08,   ! .0033/day,
(PID.TID 0000.0001) > alpfe= .05D0,
(PID.TID 0000.0001) > scav= 5.092592592592593e-08  ! 4.4D-3/day,
(PID.TID 0000.0001) > freefemax= .1D-3
(PID.TID 0000.0001) > katten_chl= .03D0,
(PID.TID 0000.0001) > PARmin= 0.1D0,
(PID.TID 0000.0001) > PAR_oxi = 0.0,
(PID.TID 0000.0001) > phygrazmin= 0.,
(PID.TID 0000.0001) >#knita=0.,
(PID.TID 0000.0001) > synthcost= 2.33D0,
(PID.TID 0000.0001) > phymin= 0.,
(PID.TID 0000.0001) > /
(PID.TID 0000.0001) > &DARWIN_RADTRANS_PARAMS
(PID.TID 0000.0001) > /
(PID.TID 0000.0001) > &DARWIN_TRAIT_PARAMS
(PID.TID 0000.0001) > tempmax = 20.0,
(PID.TID 0000.0001) > temprange = 22.0,
(PID.TID 0000.0001) > val_R_PC=0.,
(PID.TID 0000.0001) > val_R_PC_ZOO=0.,
(PID.TID 0000.0001) > /
(PID.TID 0000.0001) > &DARWIN_ALLOMETRIC_PARAMS
(PID.TID 0000.0001) > /
(PID.TID 0000.0001) 
(PID.TID 0000.0001)  ===================================
(PID.TID 0000.0001)  DIAGNOSTICS_READPARMS: opening data.diagnostics
(PID.TID 0000.0001)  OPEN_COPY_DATA_FILE: opening file data.diagnostics
(PID.TID 0000.0001) // =======================================================
(PID.TID 0000.0001) // Parameter file "data.diagnostics"
(PID.TID 0000.0001) // =======================================================
(PID.TID 0000.0001) > &diagnostics_list
(PID.TID 0000.0001) > filename(1)= 'darwin',
(PID.TID 0000.0001) > frequency(1)= 10800.,
(PID.TID 0000.0001) > fields(1,1)= 'TRAC01  ',
(PID.TID 0000.0001) > fields(2,1)= 'TRAC02  ',
(PID.TID 0000.0001) > fields(3,1)= 'TRAC03  ',
(PID.TID 0000.0001) > fields(4,1)= 'TRAC04  ',
(PID.TID 0000.0001) > fields(5,1)= 'TRAC05  ',
(PID.TID 0000.0001) > fields(6,1)= 'TRAC06  ',
(PID.TID 0000.0001) > fields(7,1)= 'TRAC07  ',
(PID.TID 0000.0001) > fields(8,1)= 'TRAC08  ',
(PID.TID 0000.0001) > fields(9,1)= 'TRAC09  ',
(PID.TID 0000.0001) > fields(10,1)= 'TRAC10  ',
(PID.TID 0000.0001) > fields(11,1)= 'TRAC11  ',
(PID.TID 0000.0001) > fields(12,1)= 'TRAC12  ',
(PID.TID 0000.0001) > fields(13,1)= 'TRAC13  ',
(PID.TID 0000.0001) > fields(14,1)= 'TRAC14  ',
(PID.TID 0000.0001) > fields(15,1)= 'TRAC15  ',
(PID.TID 0000.0001) > fields(16,1)= 'TRAC16  ',
(PID.TID 0000.0001) > fields(17,1)= 'TRAC17  ',
(PID.TID 0000.0001) > fields(18,1)= 'TRAC18  ',
(PID.TID 0000.0001) > fields(19,1)= 'TRAC19  ',
(PID.TID 0000.0001) > fields(20,1)= 'TRAC20  ',
(PID.TID 0000.0001) > fields(21,1)= 'TRAC21  ',
(PID.TID 0000.0001) > fields(22,1)= 'TRAC22  ',
(PID.TID 0000.0001) > fields(23,1)= 'TRAC23  ',
(PID.TID 0000.0001) > fields(24,1)= 'TRAC24  ',
(PID.TID 0000.0001) > fields(25,1)= 'TRAC25  ',
(PID.TID 0000.0001) > fields(26,1)= 'TRAC26  ',
(PID.TID 0000.0001) > fields(27,1)= 'TRAC27  ',
(PID.TID 0000.0001) > fields(28,1)= 'TRAC28  ',
(PID.TID 0000.0001) > fields(29,1)= 'TRAC29  ',
(PID.TID 0000.0001) > fields(30,1)= 'TRAC30  ',
(PID.TID 0000.0001) > fields(31,1)= 'TRAC31  ',
(PID.TID 0000.0001) > fields(32,1)= 'TRAC32  ',
(PID.TID 0000.0001) > fields(33,1)= 'TRAC33  ',
(PID.TID 0000.0001) > fields(34,1)= 'TRAC34  ',
(PID.TID 0000.0001) > fields(35,1)= 'TRAC35  ',
(PID.TID 0000.0001) > fields(36,1)= 'TRAC36  ',
(PID.TID 0000.0001) > fields(37,1)= 'TRAC37  ',
(PID.TID 0000.0001) > fields(38,1)= 'TRAC38  ',
(PID.TID 0000.0001) > fields(39,1)= 'TRAC39  ',
(PID.TID 0000.0001) > fields(40,1)= 'TRAC40  ',
(PID.TID 0000.0001) > fields(41,1)= 'TRAC41  ',
(PID.TID 0000.0001) > fields(42,1)= 'TRAC42  ',
(PID.TID 0000.0001) > fields(43,1)= 'TRAC43  ',
(PID.TID 0000.0001) > fields(44,1)= 'TRAC44  ',
(PID.TID 0000.0001) > fields(45,1)= 'TRAC45  ',
(PID.TID 0000.0001) > fields(46,1)= 'TRAC46  ',
(PID.TID 0000.0001) > fields(47,1)= 'TRAC47  ',
(PID.TID 0000.0001) > fields(48,1)= 'TRAC48  ',
(PID.TID 0000.0001) > fields(49,1)= 'TRAC49  ',
(PID.TID 0000.0001) > fields(50,1)= 'TRAC50  ',
(PID.TID 0000.0001) > fields(51,1)= 'TRAC51  ',
(PID.TID 0000.0001) > fields(52,1)= 'TRAC52  ',
(PID.TID 0000.0001) > fields(53,1)= 'TRAC53  ',
(PID.TID 0000.0001) > fields(54,1)= 'TRAC54  ',
(PID.TID 0000.0001) > fields(55,1)= 'TRAC55  ',
(PID.TID 0000.0001) > fields(56,1)= 'TRAC56  ',
(PID.TID 0000.0001) > fields(57,1)= 'TRAC57  ',
(PID.TID 0000.0001) > fields(58,1)= 'TRAC58  ',
(PID.TID 0000.0001) > fields(59,1)= 'TRAC59  ',
(PID.TID 0000.0001) > fields(60,1)= 'TRAC60  ',
(PID.TID 0000.0001) > fields(61,1)= 'TRAC61  ',
(PID.TID 0000.0001) > fields(62,1)= 'TRAC62  ',
(PID.TID 0000.0001) > fields(63,1)= 'TRAC63  ',
(PID.TID 0000.0001) > fields(64,1)= 'TRAC64  ',
(PID.TID 0000.0001) > fields(65,1)= 'TRAC65  ',
(PID.TID 0000.0001) > fields(66,1)= 'TRAC66  ',
(PID.TID 0000.0001) > fields(67,1)= 'TRAC67  ',
(PID.TID 0000.0001) > fields(68,1)= 'TRAC68  ',
(PID.TID 0000.0001) > fields(69,1)= 'TRAC69  ',
(PID.TID 0000.0001) > fields(70,1)= 'TRAC70  ',
(PID.TID 0000.0001) > fields(71,1)= 'TRAC71  ',
(PID.TID 0000.0001) > fields(72,1)= 'TRAC72  ',
(PID.TID 0000.0001) > fields(73,1)= 'TRAC73  ',
(PID.TID 0000.0001) > fields(74,1)= 'TRAC74  ',
(PID.TID 0000.0001) > fields(75,1)= 'TRAC75  ',
(PID.TID 0000.0001) > fields(76,1)= 'TRAC76  ',
(PID.TID 0000.0001) > fields(77,1)= 'TRAC77  ',
(PID.TID 0000.0001) > fields(78,1)= 'TRAC78  ',
(PID.TID 0000.0001) > fields(79,1)= 'TRAC79  ',
(PID.TID 0000.0001) > fields(80,1)= 'TRAC80  ',
(PID.TID 0000.0001) > fields(81,1)= 'PAR01   ',
(PID.TID 0000.0001) > fields(82,1)= 'DIC_c01 ',
(PID.TID 0000.0001) > fields(83,1)= 'DIC_c02 ',
(PID.TID 0000.0001) > fields(84,1)= 'c01_DOC ',
(PID.TID 0000.0001) > fields(85,1)= 'c02_DOC ',
(PID.TID 0000.0001) > fields(86,1)= 'c01_POC ',
(PID.TID 0000.0001) > fields(87,1)= 'c02_POC ',
(PID.TID 0000.0001) > fields(88,1)= 'PARF    ',
(PID.TID 0000.0001) > fields(89,1)= 'atten   ',
(PID.TID 0000.0001) > fields(90,1)= 'surfPAR ',
(PID.TID 0000.0001) > fields(91,1)= 'exfPAR  ',
(PID.TID 0000.0001) > fields(92,1)= 'limn01  ',
(PID.TID 0000.0001) > fields(93,1)= 'limp01  ',
(PID.TID 0000.0001) > fields(94,1)= 'limsi01 ',
(PID.TID 0000.0001) > fields(95,1)= 'limfe01 ',
(PID.TID 0000.0001) > fields(96,1)= 'limI01  ',
(PID.TID 0000.0001) > fields(97,1)= 'limT01  ',
(PID.TID 0000.0001) > fields(98,1)= 'c01_c   ',
(PID.TID 0000.0001) > fields(99,1)= 'c02_c   ',
(PID.TID 0000.0001) > fields(100,1)= 'c_c03   ',
(PID.TID 0000.0001) > fields(101,1)= 'c_c04   ',
(PID.TID 0000.0001) > fields(102,1)= 'c_DOC   ',
(PID.TID 0000.0001) > fields(103,1)= 'c_POC   ',
(PID.TID 0000.0001) > fields(104,1)= 'c_PIC   ',
(PID.TID 0000.0001) > fields(105,1)= 'n_DON   ',
(PID.TID 0000.0001) > fields(106,1)= 'n_PON   ',
(PID.TID 0000.0001) > fields(107,1)= 'p_DOP   ',
(PID.TID 0000.0001) > fields(108,1)= 'p_POP   ',
(PID.TID 0000.0001) > /
(PID.TID 0000.0001) > &diag_statis_parms
(PID.TID 0000.0001) > /
(PID.TID 0000.0001) 
(PID.TID 0000.0001) S/R DIAGNOSTICS_READPARMS, read namelist "diagnostics_list": start
(PID.TID 0000.0001) S/R DIAGNOSTICS_READPARMS, read namelist "diagnostics_list": OK
(PID.TID 0000.0001) S/R DIAGNOSTICS_READPARMS, read namelist "DIAG_STATIS_PARMS": start
(PID.TID 0000.0001) S/R DIAGNOSTICS_READPARMS, read namelist "DIAG_STATIS_PARMS": OK
(PID.TID 0000.0001)  DIAGNOSTICS_READPARMS: global parameter summary:
(PID.TID 0000.0001)  dumpAtLast = /* always write time-ave diags at the end */
(PID.TID 0000.0001)                   F
(PID.TID 0000.0001)     ;
(PID.TID 0000.0001)  diag_mnc =   /* write NetCDF output files */
(PID.TID 0000.0001)                   T
(PID.TID 0000.0001)     ;
(PID.TID 0000.0001)  useMissingValue = /* put MissingValue where mask = 0 */
(PID.TID 0000.0001)                   F
(PID.TID 0000.0001)     ;
(PID.TID 0000.0001)  diagCG_maxIters = /* max number of iters in diag_cg2d */
(PID.TID 0000.0001)                     300
(PID.TID 0000.0001)     ;
(PID.TID 0000.0001)  diagCG_resTarget = /* residual target for diag_cg2d */
(PID.TID 0000.0001)                 1.000000000000000E-07
(PID.TID 0000.0001)     ;
(PID.TID 0000.0001) -----------------------------------------------------
(PID.TID 0000.0001)  DIAGNOSTICS_READPARMS: active diagnostics summary:
(PID.TID 0000.0001) -----------------------------------------------------
(PID.TID 0000.0001) Creating Output Stream: darwin
(PID.TID 0000.0001) Output Frequency:      10800.000000 ; Phase:           0.000000
(PID.TID 0000.0001)  Averaging Freq.:      10800.000000 , Phase:           0.000000 , Cycle:   1
(PID.TID 0000.0001)  missing value:  1.234567000000E+05 ; for integers:   123456789
(PID.TID 0000.0001)  Levels:    will be set later
(PID.TID 0000.0001)  Fields:    TRAC01   TRAC02   TRAC03   TRAC04   TRAC05   TRAC06   TRAC07   TRAC08   TRAC09   TRAC10
(PID.TID 0000.0001)  Fields:    TRAC11   TRAC12   TRAC13   TRAC14   TRAC15   TRAC16   TRAC17   TRAC18   TRAC19   TRAC20
(PID.TID 0000.0001)  Fields:    TRAC21   TRAC22   TRAC23   TRAC24   TRAC25   TRAC26   TRAC27   TRAC28   TRAC29   TRAC30
(PID.TID 0000.0001)  Fields:    TRAC31   TRAC32   TRAC33   TRAC34   TRAC35   TRAC36   TRAC37   TRAC38   TRAC39   TRAC40
(PID.TID 0000.0001)  Fields:    TRAC41   TRAC42   TRAC43   TRAC44   TRAC45   TRAC46   TRAC47   TRAC48   TRAC49   TRAC50
(PID.TID 0000.0001)  Fields:    TRAC51   TRAC52   TRAC53   TRAC54   TRAC55   TRAC56   TRAC57   TRAC58   TRAC59   TRAC60
(PID.TID 0000.0001)  Fields:    TRAC61   TRAC62   TRAC63   TRAC64   TRAC65   TRAC66   TRAC67   TRAC68   TRAC69   TRAC70
(PID.TID 0000.0001)  Fields:    TRAC71   TRAC72   TRAC73   TRAC74   TRAC75   TRAC76   TRAC77   TRAC78   TRAC79   TRAC80
(PID.TID 0000.0001)  Fields:    PAR01    DIC_c01  DIC_c02  c01_DOC  c02_DOC  c01_POC  c02_POC  PARF     atten    surfPAR
(PID.TID 0000.0001)  Fields:    exfPAR   limn01   limp01   limsi01  limfe01  limI01   limT01   c01_c    c02_c    c_c03
(PID.TID 0000.0001)  Fields:    c_c04    c_DOC    c_POC    c_PIC    n_DON    n_PON    p_DOP    p_POP
(PID.TID 0000.0001) -----------------------------------------------------
(PID.TID 0000.0001)  DIAGNOSTICS_READPARMS: statistics diags. summary:
(PID.TID 0000.0001) -----------------------------------------------------
(PID.TID 0000.0001) 
(PID.TID 0000.0001) SET_PARMS: done
(PID.TID 0000.0001) Enter INI_VERTICAL_GRID: setInterFDr=    T ; setCenterDr=    F
(PID.TID 0000.0001) %MON XC_max                       =   3.3550000000000000E+02
(PID.TID 0000.0001) %MON XC_min                       =   3.3550000000000000E+02
(PID.TID 0000.0001) %MON XC_mean                      =   3.3550000000000000E+02
(PID.TID 0000.0001) %MON XC_sd                        =   0.0000000000000000E+00
(PID.TID 0000.0001) %MON XG_max                       =   3.3500000000000000E+02
(PID.TID 0000.0001) %MON XG_min                       =   3.3500000000000000E+02
(PID.TID 0000.0001) %MON XG_mean                      =   3.3500000000000000E+02
(PID.TID 0000.0001) %MON XG_sd                        =   0.0000000000000000E+00
(PID.TID 0000.0001) %MON DXC_max                      =   1.0603184087719869E+05
(PID.TID 0000.0001) %MON DXC_min                      =   1.0603184087719869E+05
(PID.TID 0000.0001) %MON DXC_mean                     =   1.0603184087719869E+05
(PID.TID 0000.0001) %MON DXC_sd                       =   0.0000000000000000E+00
(PID.TID 0000.0001) %MON DXF_max                      =   1.0603184087719869E+05
(PID.TID 0000.0001) %MON DXF_min                      =   1.0603184087719869E+05
(PID.TID 0000.0001) %MON DXF_mean                     =   1.0603184087719869E+05
(PID.TID 0000.0001) %MON DXF_sd                       =   0.0000000000000000E+00
(PID.TID 0000.0001) %MON DXG_max                      =   1.0573606049668728E+05
(PID.TID 0000.0001) %MON DXG_min                      =   1.0573606049668728E+05
(PID.TID 0000.0001) %MON DXG_mean                     =   1.0573606049668728E+05
(PID.TID 0000.0001) %MON DXG_sd                       =   0.0000000000000000E+00
(PID.TID 0000.0001) %MON DXV_max                      =   1.0573606049668728E+05
(PID.TID 0000.0001) %MON DXV_min                      =   1.0573606049668728E+05
(PID.TID 0000.0001) %MON DXV_mean                     =   1.0573606049668728E+05
(PID.TID 0000.0001) %MON DXV_sd                       =   0.0000000000000000E+00
(PID.TID 0000.0001) %MON YC_max                       =  -1.7500000000000000E+01
(PID.TID 0000.0001) %MON YC_min                       =  -1.7500000000000000E+01
(PID.TID 0000.0001) %MON YC_mean                      =  -1.7500000000000000E+01
(PID.TID 0000.0001) %MON YC_sd                        =   0.0000000000000000E+00
(PID.TID 0000.0001) %MON YG_max                       =  -1.8000000000000000E+01
(PID.TID 0000.0001) %MON YG_min                       =  -1.8000000000000000E+01
(PID.TID 0000.0001) %MON YG_mean                      =  -1.8000000000000000E+01
(PID.TID 0000.0001) %MON YG_sd                        =   0.0000000000000000E+00
(PID.TID 0000.0001) %MON DYC_max                      =   1.1117747335203880E+05
(PID.TID 0000.0001) %MON DYC_min                      =   1.1117747335203880E+05
(PID.TID 0000.0001) %MON DYC_mean                     =   1.1117747335203880E+05
(PID.TID 0000.0001) %MON DYC_sd                       =   0.0000000000000000E+00
(PID.TID 0000.0001) %MON DYF_max                      =   1.1117747335203880E+05
(PID.TID 0000.0001) %MON DYF_min                      =   1.1117747335203880E+05
(PID.TID 0000.0001) %MON DYF_mean                     =   1.1117747335203880E+05
(PID.TID 0000.0001) %MON DYF_sd                       =   0.0000000000000000E+00
(PID.TID 0000.0001) %MON DYG_max                      =   1.1117747335203880E+05
(PID.TID 0000.0001) %MON DYG_min                      =   1.1117747335203880E+05
(PID.TID 0000.0001) %MON DYG_mean                     =   1.1117747335203880E+05
(PID.TID 0000.0001) %MON DYG_sd                       =   0.0000000000000000E+00
(PID.TID 0000.0001) %MON DYU_max                      =   1.1117747335203880E+05
(PID.TID 0000.0001) %MON DYU_min                      =   1.1117747335203880E+05
(PID.TID 0000.0001) %MON DYU_mean                     =   1.1117747335203880E+05
(PID.TID 0000.0001) %MON DYU_sd                       =   0.0000000000000000E+00
(PID.TID 0000.0001) %MON RA_max                       =   1.1788202541769560E+10
(PID.TID 0000.0001) %MON RA_min                       =   1.1788202541769560E+10
(PID.TID 0000.0001) %MON RA_mean                      =   1.1788202541769560E+10
(PID.TID 0000.0001) %MON RA_sd                        =   0.0000000000000000E+00
(PID.TID 0000.0001) %MON RAW_max                      =   1.1788202541769560E+10
(PID.TID 0000.0001) %MON RAW_min                      =   1.1788202541769560E+10
(PID.TID 0000.0001) %MON RAW_mean                     =   1.1788202541769560E+10
(PID.TID 0000.0001) %MON RAW_sd                       =   0.0000000000000000E+00
(PID.TID 0000.0001) %MON RAS_max                      =   1.1755318843773766E+10
(PID.TID 0000.0001) %MON RAS_min                      =   1.1755318843773766E+10
(PID.TID 0000.0001) %MON RAS_mean                     =   1.1755318843773766E+10
(PID.TID 0000.0001) %MON RAS_sd                       =   0.0000000000000000E+00
(PID.TID 0000.0001) %MON RAZ_max                      =   1.1755318843773766E+10
(PID.TID 0000.0001) %MON RAZ_min                      =   1.1755318843773766E+10
(PID.TID 0000.0001) %MON RAZ_mean                     =   1.1755318843773766E+10
(PID.TID 0000.0001) %MON RAZ_sd                       =   0.0000000000000000E+00
(PID.TID 0000.0001) %MON AngleCS_max                  =   1.0000000000000000E+00
(PID.TID 0000.0001) %MON AngleCS_min                  =   1.0000000000000000E+00
(PID.TID 0000.0001) %MON AngleCS_mean                 =   1.0000000000000000E+00
(PID.TID 0000.0001) %MON AngleCS_sd                   =   0.0000000000000000E+00
(PID.TID 0000.0001) %MON AngleSN_max                  =   0.0000000000000000E+00
(PID.TID 0000.0001) %MON AngleSN_min                  =   0.0000000000000000E+00
(PID.TID 0000.0001) %MON AngleSN_mean                 =   0.0000000000000000E+00
(PID.TID 0000.0001) %MON AngleSN_sd                   =   0.0000000000000000E+00
(PID.TID 0000.0001)  MDS_READ_FIELD: opening global file: ../input/input/bathyneg.bin
(PID.TID 0000.0001) // =======================================================
(PID.TID 0000.0001) // Field Model R_low (ini_masks_etc)
(PID.TID 0000.0001) // CMIN =         -3.495000000000000E+03
(PID.TID 0000.0001) // CMAX =         -3.495000000000000E+03
(PID.TID 0000.0001) // CINT =          0.000000000000000E+00
(PID.TID 0000.0001) // SYMBOLS (CMIN->CMAX): -abcdefghijklmnopqrstuvwxyz+
(PID.TID 0000.0001) //                  0.0: .
(PID.TID 0000.0001) // RANGE I (Lo:Hi:Step):(    -1:     3:     1)
(PID.TID 0000.0001) // RANGE J (Lo:Hi:Step):(     3:    -1:    -1)
(PID.TID 0000.0001) // RANGE K (Lo:Hi:Step):(   1:   1:   1)
(PID.TID 0000.0001) // =======================================================
(PID.TID 0000.0001) // =======================================================
(PID.TID 0000.0001) // END OF FIELD                                          =
(PID.TID 0000.0001) // =======================================================
(PID.TID 0000.0001) 
(PID.TID 0000.0001) // =======================================================
(PID.TID 0000.0001) // Field Model Ro_surf (ini_masks_etc)
(PID.TID 0000.0001) // CMIN =          1.000000000000000E+32
(PID.TID 0000.0001) // CMAX =         -1.000000000000000E+32
(PID.TID 0000.0001) // CINT =          0.000000000000000E+00
(PID.TID 0000.0001) // SYMBOLS (CMIN->CMAX): -abcdefghijklmnopqrstuvwxyz+
(PID.TID 0000.0001) //                  0.0: .
(PID.TID 0000.0001) // RANGE I (Lo:Hi:Step):(    -1:     3:     1)
(PID.TID 0000.0001) // RANGE J (Lo:Hi:Step):(     3:    -1:    -1)
(PID.TID 0000.0001) // RANGE K (Lo:Hi:Step):(   1:   1:   1)
(PID.TID 0000.0001) // =======================================================
(PID.TID 0000.0001) // =======================================================
(PID.TID 0000.0001) // END OF FIELD                                          =
(PID.TID 0000.0001) // =======================================================
(PID.TID 0000.0001) 
(PID.TID 0000.0001) // =======================================================
(PID.TID 0000.0001) // Field hFacC at iteration          0
(PID.TID 0000.0001) // CMIN =          1.000000000000000E+00
(PID.TID 0000.0001) // CMAX =          1.000000000000000E+00
(PID.TID 0000.0001) // CINT =          0.000000000000000E+00
(PID.TID 0000.0001) // SYMBOLS (CMIN->CMAX): -abcdefghijklmnopqrstuvwxyz+
(PID.TID 0000.0001) //                  0.0: .
(PID.TID 0000.0001) // RANGE I (Lo:Hi:Step):(    -1:     3:     1)
(PID.TID 0000.0001) // RANGE J (Lo:Hi:Step):(     3:    -1:    -1)
(PID.TID 0000.0001) // RANGE K (Lo:Hi:Step):(   1:   1:   1)
(PID.TID 0000.0001) // =======================================================
(PID.TID 0000.0001) // =======================================================
(PID.TID 0000.0001) // END OF FIELD                                          =
(PID.TID 0000.0001) // =======================================================
(PID.TID 0000.0001) 
(PID.TID 0000.0001) // =======================================================
(PID.TID 0000.0001) // Field hFacW at iteration          0
(PID.TID 0000.0001) // CMIN =          1.000000000000000E+00
(PID.TID 0000.0001) // CMAX =          1.000000000000000E+00
(PID.TID 0000.0001) // CINT =          0.000000000000000E+00
(PID.TID 0000.0001) // SYMBOLS (CMIN->CMAX): -abcdefghijklmnopqrstuvwxyz+
(PID.TID 0000.0001) //                  0.0: .
(PID.TID 0000.0001) // RANGE I (Lo:Hi:Step):(    -1:     3:     1)
(PID.TID 0000.0001) // RANGE J (Lo:Hi:Step):(     3:    -1:    -1)
(PID.TID 0000.0001) // RANGE K (Lo:Hi:Step):(   1:   1:   1)
(PID.TID 0000.0001) // =======================================================
(PID.TID 0000.0001) // =======================================================
(PID.TID 0000.0001) // END OF FIELD                                          =
(PID.TID 0000.0001) // =======================================================
(PID.TID 0000.0001) 
(PID.TID 0000.0001) // =======================================================
(PID.TID 0000.0001) // Field hFacS at iteration          0
(PID.TID 0000.0001) // CMIN =          1.000000000000000E+00
(PID.TID 0000.0001) // CMAX =          1.000000000000000E+00
(PID.TID 0000.0001) // CINT =          0.000000000000000E+00
(PID.TID 0000.0001) // SYMBOLS (CMIN->CMAX): -abcdefghijklmnopqrstuvwxyz+
(PID.TID 0000.0001) //                  0.0: .
(PID.TID 0000.0001) // RANGE I (Lo:Hi:Step):(    -1:     3:     1)
(PID.TID 0000.0001) // RANGE J (Lo:Hi:Step):(     3:    -1:    -1)
(PID.TID 0000.0001) // RANGE K (Lo:Hi:Step):(   1:   1:   1)
(PID.TID 0000.0001) // =======================================================
(PID.TID 0000.0001) // =======================================================
(PID.TID 0000.0001) // END OF FIELD                                          =
(PID.TID 0000.0001) // =======================================================
(PID.TID 0000.0001) 
(PID.TID 0000.0001) 
(PID.TID 0000.0001) // =======================================================
(PID.TID 0000.0001) // Calendar configuration >>> START <<<
(PID.TID 0000.0001) // =======================================================
(PID.TID 0000.0001) 
(PID.TID 0000.0001) modelstart = /* Start time of the model integration [s] */
(PID.TID 0000.0001)                 0.000000000000000E+00
(PID.TID 0000.0001)     ;
(PID.TID 0000.0001) modelend  = /* End time of the model integration [s] */
(PID.TID 0000.0001)                 4.320000000000000E+04
(PID.TID 0000.0001)     ;
(PID.TID 0000.0001) modelstep = /* Time interval for a model forward step [s] */
(PID.TID 0000.0001)                 1.080000000000000E+04
(PID.TID 0000.0001)     ;
(PID.TID 0000.0001) usingGregorianCalendar= /* Calendar Type: Gregorian Calendar */
(PID.TID 0000.0001)                   F
(PID.TID 0000.0001)     ;
(PID.TID 0000.0001) usingJulianCalendar = /* Calendar Type: Julian Calendar */
(PID.TID 0000.0001)                   F
(PID.TID 0000.0001)     ;
(PID.TID 0000.0001) usingModelCalendar  = /* Calendar Type: Model Calendar */
(PID.TID 0000.0001)                   T
(PID.TID 0000.0001)     ;
(PID.TID 0000.0001) modelstartdate YYYYMMDD = /* Model start date YYYY-MM-DD */
(PID.TID 0000.0001)                19920101
(PID.TID 0000.0001)     ;
(PID.TID 0000.0001)   modelstartdate HHMMSS = /* Model start date HH-MM-SS  */
(PID.TID 0000.0001)                       0
(PID.TID 0000.0001)     ;
(PID.TID 0000.0001) modelenddate   YYYYMMDD = /* Model end date YYYY-MM-DD */
(PID.TID 0000.0001)                19920101
(PID.TID 0000.0001)     ;
(PID.TID 0000.0001)   modelenddate   HHMMSS = /* Model end date HH-MM-SS  */
(PID.TID 0000.0001)                  120000
(PID.TID 0000.0001)     ;
(PID.TID 0000.0001) intyears = /* Number of calendar years affected by the integration */
(PID.TID 0000.0001)                       1
(PID.TID 0000.0001)     ;
(PID.TID 0000.0001) intmonths= /* Number of calendar months affected by the integration */
(PID.TID 0000.0001)                       1
(PID.TID 0000.0001)     ;
(PID.TID 0000.0001) intdays = /* Number of calendar days affected by the integration */
(PID.TID 0000.0001)                       1
(PID.TID 0000.0001)     ;
(PID.TID 0000.0001) modeliter0 = /* Base timestep number  */
(PID.TID 0000.0001)                       0
(PID.TID 0000.0001)     ;
(PID.TID 0000.0001) modeliterend = /* Final timestep number  */
(PID.TID 0000.0001)                       4
(PID.TID 0000.0001)     ;
(PID.TID 0000.0001) modelintsteps= /* Number of model timesteps  */
(PID.TID 0000.0001)                       4
(PID.TID 0000.0001)     ;
(PID.TID 0000.0001) 
(PID.TID 0000.0001) // =======================================================
(PID.TID 0000.0001) // Calendar configuration  >>> END <<<
(PID.TID 0000.0001) // =======================================================
(PID.TID 0000.0001) 
(PID.TID 0000.0001) GAD_INIT_FIXED: GAD_OlMinSize=  2  0  1
(PID.TID 0000.0001) 
(PID.TID 0000.0001) // ===================================
(PID.TID 0000.0001) // GAD parameters :
(PID.TID 0000.0001) // ===================================
(PID.TID 0000.0001) tempAdvScheme =   /* Temp. Horiz.Advection scheme selector */
(PID.TID 0000.0001)                       3
(PID.TID 0000.0001)     ;
(PID.TID 0000.0001) tempVertAdvScheme =   /* Temp. Vert. Advection scheme selector */
(PID.TID 0000.0001)                       3
(PID.TID 0000.0001)     ;
(PID.TID 0000.0001) tempMultiDimAdvec =   /* use Muti-Dim Advec method for Temp */
(PID.TID 0000.0001)                   F
(PID.TID 0000.0001)     ;
(PID.TID 0000.0001) tempSOM_Advection = /* use 2nd Order Moment Advection for Temp */
(PID.TID 0000.0001)                   F
(PID.TID 0000.0001)     ;
(PID.TID 0000.0001) AdamsBashforthGt = /* apply Adams-Bashforth extrapolation on Gt */
(PID.TID 0000.0001)                   T
(PID.TID 0000.0001)     ;
(PID.TID 0000.0001) AdamsBashforth_T = /* apply Adams-Bashforth extrapolation on Temp */
(PID.TID 0000.0001)                   F
(PID.TID 0000.0001)     ;
(PID.TID 0000.0001) saltAdvScheme =   /* Salt. Horiz.advection scheme selector */
(PID.TID 0000.0001)                       3
(PID.TID 0000.0001)     ;
(PID.TID 0000.0001) saltVertAdvScheme =   /* Salt. Vert. Advection scheme selector */
(PID.TID 0000.0001)                       3
(PID.TID 0000.0001)     ;
(PID.TID 0000.0001) saltMultiDimAdvec =   /* use Muti-Dim Advec method for Salt */
(PID.TID 0000.0001)                   F
(PID.TID 0000.0001)     ;
(PID.TID 0000.0001) saltSOM_Advection = /* use 2nd Order Moment Advection for Salt */
(PID.TID 0000.0001)                   F
(PID.TID 0000.0001)     ;
(PID.TID 0000.0001) AdamsBashforthGs = /* apply Adams-Bashforth extrapolation on Gs */
(PID.TID 0000.0001)                   F
(PID.TID 0000.0001)     ;
(PID.TID 0000.0001) AdamsBashforth_S = /* apply Adams-Bashforth extrapolation on Salt */
(PID.TID 0000.0001)                   F
(PID.TID 0000.0001)     ;
(PID.TID 0000.0001) // ===================================
(PID.TID 0000.0001) 
(PID.TID 0000.0001) // =======================================================
(PID.TID 0000.0001) // External forcing (EXF) configuration >>> START <<<
(PID.TID 0000.0001) // =======================================================
(PID.TID 0000.0001) 
(PID.TID 0000.0001)  EXF general parameters:
(PID.TID 0000.0001) 
(PID.TID 0000.0001) exf_iprec = /* exf file precision */
(PID.TID 0000.0001)                      32
(PID.TID 0000.0001)     ;
(PID.TID 0000.0001) useExfYearlyFields = /* add extension _YEAR to input file names */
(PID.TID 0000.0001)                   T
(PID.TID 0000.0001)     ;
(PID.TID 0000.0001) twoDigitYear = /* use 2-digit year extension */
(PID.TID 0000.0001)                   T
(PID.TID 0000.0001)     ;
(PID.TID 0000.0001) exf_verbose = /* print more messages to STDOUT */
(PID.TID 0000.0001)                   F
(PID.TID 0000.0001)     ;
(PID.TID 0000.0001) useExfCheckRange = /* check for fields range */
(PID.TID 0000.0001)                   F
(PID.TID 0000.0001)     ;
(PID.TID 0000.0001) exf_monFreq = /* EXF monitor frequency [ s ] */
(PID.TID 0000.0001)                 1.000000000000000E+00
(PID.TID 0000.0001)     ;
(PID.TID 0000.0001) repeatPeriod = /* period for cycling forcing dataset [ s ] */
(PID.TID 0000.0001)                 0.000000000000000E+00
(PID.TID 0000.0001)     ;
(PID.TID 0000.0001) climTempFreeze= /* Minimum climatological temperature [deg.C] */
(PID.TID 0000.0001)                -1.900000000000000E+00
(PID.TID 0000.0001)     ;
(PID.TID 0000.0001) windStressMax = /* Maximum absolute windstress [ Pa ] */
(PID.TID 0000.0001)                 2.000000000000000E+00
(PID.TID 0000.0001)     ;
(PID.TID 0000.0001) stressIsOnCgrid = /* set u,v_stress on Arakawa C-grid */
(PID.TID 0000.0001)                   F
(PID.TID 0000.0001)     ;
(PID.TID 0000.0001) cen2kel = /* conversion of deg. Centigrade to Kelvin [K] */
(PID.TID 0000.0001)                 2.731500000000000E+02
(PID.TID 0000.0001)     ;
(PID.TID 0000.0001) gravity_mks= /* gravitational acceleration [m/s^2] */
(PID.TID 0000.0001)                 9.810000000000000E+00
(PID.TID 0000.0001)     ;
(PID.TID 0000.0001) atmrho =  /* mean atmospheric density [kg/m^3] */
(PID.TID 0000.0001)                 1.200000000000000E+00
(PID.TID 0000.0001)     ;
(PID.TID 0000.0001) atmcp =  /* mean atmospheric specific heat [J/kg/K] */
(PID.TID 0000.0001)                 1.005000000000000E+03
(PID.TID 0000.0001)     ;
(PID.TID 0000.0001) flamb =  /* latent heat of evaporation [J/kg] */
(PID.TID 0000.0001)                 2.500000000000000E+06
(PID.TID 0000.0001)     ;
(PID.TID 0000.0001) flami =  /* latent heat of pure-ice melting [J/kg] */
(PID.TID 0000.0001)                 3.340000000000000E+05
(PID.TID 0000.0001)     ;
(PID.TID 0000.0001) cvapor_fac = /* const. for Saturation calculation [?] */
(PID.TID 0000.0001)                 6.403800000000000E+05
(PID.TID 0000.0001)     ;
(PID.TID 0000.0001) cvapor_exp = /* const. for Saturation calculation [?] */
(PID.TID 0000.0001)                 5.107400000000000E+03
(PID.TID 0000.0001)     ;
(PID.TID 0000.0001) cvapor_fac_ice= /* const. for Saturation calculation [?] */
(PID.TID 0000.0001)                 1.163780000000000E+07
(PID.TID 0000.0001)     ;
(PID.TID 0000.0001) cvapor_exp_ice= /* const. for Saturation calculation [?] */
(PID.TID 0000.0001)                 5.897800000000000E+03
(PID.TID 0000.0001)     ;
(PID.TID 0000.0001) humid_fac = /* humidity coef. in virtual temp. [(kg/kg)^-1] */
(PID.TID 0000.0001)                 6.060000000000000E-01
(PID.TID 0000.0001)     ;
(PID.TID 0000.0001) gamma_blk = /* adiabatic lapse rate [?] */
(PID.TID 0000.0001)                 1.000000000000000E-02
(PID.TID 0000.0001)     ;
(PID.TID 0000.0001) saltsat = /* reduction of Qsat over salty water [-] */
(PID.TID 0000.0001)                 9.800000000000000E-01
(PID.TID 0000.0001)     ;
(PID.TID 0000.0001) noNegativeEvap = /* prevent negative Evaporation */
(PID.TID 0000.0001)                   F
(PID.TID 0000.0001)     ;
(PID.TID 0000.0001) sstExtrapol = /* extrapolation coeff from lev. 1 & 2 to surf [-] */
(PID.TID 0000.0001)                 0.000000000000000E+00
(PID.TID 0000.0001)     ;
(PID.TID 0000.0001) cDrag_1 = /* coef used in drag calculation [?] */
(PID.TID 0000.0001)                 2.700000000000000E-03
(PID.TID 0000.0001)     ;
(PID.TID 0000.0001) cDrag_2 = /* coef used in drag calculation [?] */
(PID.TID 0000.0001)                 1.420000000000000E-04
(PID.TID 0000.0001)     ;
(PID.TID 0000.0001) cDrag_3 = /* coef used in drag calculation [?] */
(PID.TID 0000.0001)                 7.640000000000000E-05
(PID.TID 0000.0001)     ;
(PID.TID 0000.0001) cStanton_1 = /* coef used in Stanton number calculation [?] */
(PID.TID 0000.0001)                 3.270000000000000E-02
(PID.TID 0000.0001)     ;
(PID.TID 0000.0001) cStanton_2 = /* coef used in Stanton number calculation [?] */
(PID.TID 0000.0001)                 1.800000000000000E-02
(PID.TID 0000.0001)     ;
(PID.TID 0000.0001) cDalton = /* coef used in Dalton number calculation [?] */
(PID.TID 0000.0001)                 3.460000000000000E-02
(PID.TID 0000.0001)     ;
(PID.TID 0000.0001) exf_scal_BulkCdn= /* Drag coefficient scaling factor [-] */
(PID.TID 0000.0001)                 1.000000000000000E+00
(PID.TID 0000.0001)     ;
(PID.TID 0000.0001) zolmin = /* minimum stability parameter [?] */
(PID.TID 0000.0001)                -1.000000000000000E+02
(PID.TID 0000.0001)     ;
(PID.TID 0000.0001) psim_fac = /* coef used in turbulent fluxes calculation [-] */
(PID.TID 0000.0001)                 5.000000000000000E+00
(PID.TID 0000.0001)     ;
(PID.TID 0000.0001) zref =  /* reference height [ m ] */
(PID.TID 0000.0001)                 1.000000000000000E+01
(PID.TID 0000.0001)     ;
(PID.TID 0000.0001) hu =  /* height of mean wind [ m ] */
(PID.TID 0000.0001)                 1.000000000000000E+01
(PID.TID 0000.0001)     ;
(PID.TID 0000.0001) ht =  /* height of mean temperature [ m ] */
(PID.TID 0000.0001)                 2.000000000000000E+00
(PID.TID 0000.0001)     ;
(PID.TID 0000.0001) hq =  /* height of mean spec.humidity [ m ] */
(PID.TID 0000.0001)                 2.000000000000000E+00
(PID.TID 0000.0001)     ;
(PID.TID 0000.0001) uMin = /* minimum wind speed [m/s] */
(PID.TID 0000.0001)                 5.000000000000000E-01
(PID.TID 0000.0001)     ;
(PID.TID 0000.0001) useStabilityFct_overIce= /* transfert Coeffs over sea-ice depend on stability */
(PID.TID 0000.0001)                   F
(PID.TID 0000.0001)     ;
(PID.TID 0000.0001) exf_iceCd = /* drag coefficient over sea-ice (fixed) [-] */
(PID.TID 0000.0001)                 1.630000000000000E-03
(PID.TID 0000.0001)     ;
(PID.TID 0000.0001) exf_iceCe = /* transfert coeff. over sea-ice, for Evap (fixed) [-] */
(PID.TID 0000.0001)                 1.630000000000000E-03
(PID.TID 0000.0001)     ;
(PID.TID 0000.0001) exf_iceCh = /* transfert coeff. over sea-ice, Sens.Heat.(fixed)[-] */
(PID.TID 0000.0001)                 1.630000000000000E-03
(PID.TID 0000.0001)     ;
(PID.TID 0000.0001) exf_albedo =  /* Sea-water albedo [-] */
(PID.TID 0000.0001)                 1.500000000000000E-01
(PID.TID 0000.0001)     ;
(PID.TID 0000.0001) useExfZenAlbedo = /* Sea-water albedo varies with zenith angle */
(PID.TID 0000.0001)                   F
(PID.TID 0000.0001)     ;
(PID.TID 0000.0001) select_ZenAlbedo = /* Sea-water albedo computation method */
(PID.TID 0000.0001)                       0
(PID.TID 0000.0001)     ;
(PID.TID 0000.0001) useExfZenIncoming = /* compute incoming solar radiation */
(PID.TID 0000.0001)                   F
(PID.TID 0000.0001)     ;
(PID.TID 0000.0001) ocean_emissivity = /* longwave ocean-surface emissivity [-] */
(PID.TID 0000.0001)                 9.700176366843034E-01
(PID.TID 0000.0001)     ;
(PID.TID 0000.0001) ice_emissivity = /* longwave seaice emissivity [-] */
(PID.TID 0000.0001)                 9.500000000000000E-01
(PID.TID 0000.0001)     ;
(PID.TID 0000.0001) snow_emissivity = /* longwave snow  emissivity [-] */
(PID.TID 0000.0001)                 9.500000000000000E-01
(PID.TID 0000.0001)     ;
(PID.TID 0000.0001) 
(PID.TID 0000.0001)  EXF main CPP flags:
(PID.TID 0000.0001) 
(PID.TID 0000.0001) // USE_EXF_INTERPOLATION:          NOT defined
(PID.TID 0000.0001) // ALLOW_ATM_TEMP:                     defined
(PID.TID 0000.0001) // ALLOW_ATM_WIND (useAtmWind):        defined
(PID.TID 0000.0001) // ALLOW_DOWNWARD_RADIATION:           defined
(PID.TID 0000.0001) // ALLOW_BULKFORMULAE:                 defined
(PID.TID 0000.0001) 
(PID.TID 0000.0001)    Net shortwave flux forcing starts at                0.
(PID.TID 0000.0001)    Net shortwave flux forcing period is                0.
(PID.TID 0000.0001)    Net shortwave flux forcing is read from file:
(PID.TID 0000.0001)    >>    <<
(PID.TID 0000.0001) 
(PID.TID 0000.0001)    Zonal wind forcing starts at                          0.
(PID.TID 0000.0001)    Zonal wind forcing period is                          0.
(PID.TID 0000.0001)    Zonal wind forcing is read from file:
(PID.TID 0000.0001)    >>    <<
(PID.TID 0000.0001) 
(PID.TID 0000.0001)    Meridional wind forcing starts at                     0.
(PID.TID 0000.0001)    Meridional wind forcing period is                     0.
(PID.TID 0000.0001)    Meridional wind forcing is read from file:
(PID.TID 0000.0001)    >>    <<
(PID.TID 0000.0001) 
(PID.TID 0000.0001)    Atmospheric temperature starts at                     0.
(PID.TID 0000.0001)    Atmospheric temperature period is                     0.
(PID.TID 0000.0001)    Atmospheric temperature is read from file:
(PID.TID 0000.0001)    >>    <<
(PID.TID 0000.0001) 
(PID.TID 0000.0001)    Atmospheric specific humidity starts at               0.
(PID.TID 0000.0001)    Atmospheric specific humidity period is               0.
(PID.TID 0000.0001)    Atmospheric specific humidity is read from file:
(PID.TID 0000.0001)    >>    <<
(PID.TID 0000.0001) 
(PID.TID 0000.0001)    Net longwave flux forcing starts at                 0.
(PID.TID 0000.0001)    Net longwave flux forcing period is                 0.
(PID.TID 0000.0001)    Net longwave flux forcing is read from file:
(PID.TID 0000.0001)    >>    <<
(PID.TID 0000.0001) 
(PID.TID 0000.0001)    Precipitation data set starts at                      0.
(PID.TID 0000.0001)    Precipitation data period is                          0.
(PID.TID 0000.0001)    Precipitation data is read from file:
(PID.TID 0000.0001)    >>    <<
(PID.TID 0000.0001) 
(PID.TID 0000.0001) // EXF_READ_EVAP:                  NOT defined
(PID.TID 0000.0001) 
(PID.TID 0000.0001) // ALLOW_RUNOFF:                       defined
(PID.TID 0000.0001)    Runoff starts at               0.
(PID.TID 0000.0001)    Runoff period is               0.
(PID.TID 0000.0001)    Runoff is read from file:
(PID.TID 0000.0001)    >>    <<
(PID.TID 0000.0001) 
(PID.TID 0000.0001)    Downward shortwave flux forcing starts at                0.
(PID.TID 0000.0001)    Downward shortwave flux forcing period is                0.
(PID.TID 0000.0001)    Downward shortwave flux forcing is read from file:
(PID.TID 0000.0001)    >>    <<
(PID.TID 0000.0001) 
(PID.TID 0000.0001)    Downward longwave flux forcing starts at                 0.
(PID.TID 0000.0001)    Downward longwave flux forcing period is                 0.
(PID.TID 0000.0001)    Downward longwave flux forcing is read from file:
(PID.TID 0000.0001)    >>    <<
(PID.TID 0000.0001) 
(PID.TID 0000.0001)    Atmospheric pressure forcing starts at                0.
(PID.TID 0000.0001)    Atmospheric pressure forcing period is                0.
(PID.TID 0000.0001)    Atmospheric pressureforcing is read from file:
(PID.TID 0000.0001)    >>    <<
(PID.TID 0000.0001) 
(PID.TID 0000.0001) // =======================================================
(PID.TID 0000.0001) // External forcing (EXF) climatology configuration :
(PID.TID 0000.0001) // =======================================================
(PID.TID 0000.0001) 
(PID.TID 0000.0001) // ALLOW_CLIMSST_RELAXATION:       NOT defined
(PID.TID 0000.0001) // ALLOW_CLIMSSS_RELAXATION:       NOT defined
(PID.TID 0000.0001) 
(PID.TID 0000.0001) // =======================================================
(PID.TID 0000.0001) // External forcing (EXF) configuration  >>> END <<<
(PID.TID 0000.0001) // =======================================================
(PID.TID 0000.0001) 
(PID.TID 0000.0001) QQ random port_rand            11231   0.4077530000000000
(PID.TID 0000.0001)  DARWIN_INIT_FIXED: opening data.traits
(PID.TID 0000.0001)  OPEN_COPY_DATA_FILE: opening file data.traits
(PID.TID 0000.0001) // =======================================================
(PID.TID 0000.0001) // Parameter file "data.traits"
(PID.TID 0000.0001) // =======================================================
(PID.TID 0000.0001) > &DARWIN_TRAITS
(PID.TID 0000.0001) > chl2cmin(:)= 15*0.0,
(PID.TID 0000.0001) > chl2cmax(:)= 15*1e10,
(PID.TID 0000.0001) ># no P or Si limitations
(PID.TID 0000.0001) > ksatPO4(:)= 15*0.0,
(PID.TID 0000.0001) > ksatSiO2(:)= 15*0.0,
(PID.TID 0000.0001) > /
(PID.TID 0000.0001) 
(PID.TID 0000.0001)  ===================================
(PID.TID 0000.0001) ------------------------------------------------------------
(PID.TID 0000.0001) DIAGNOSTICS_SET_LEVELS: done
(PID.TID 0000.0001)  Total Nb of available Diagnostics: ndiagt=  1387
(PID.TID 0000.0001)  write list of available Diagnostics to file: available_diagnostics.log
(PID.TID 0000.0001) SETDIAG: Allocate 35 x  1 Levels for Diagnostic #   156 TRAC01
(PID.TID 0000.0001) SETDIAG: Allocate 35 x  1 Levels for Diagnostic #   169 TRAC02
(PID.TID 0000.0001) SETDIAG: Allocate 35 x  1 Levels for Diagnostic #   182 TRAC03
(PID.TID 0000.0001) SETDIAG: Allocate 35 x  1 Levels for Diagnostic #   195 TRAC04
(PID.TID 0000.0001) SETDIAG: Allocate 35 x  1 Levels for Diagnostic #   208 TRAC05
(PID.TID 0000.0001) SETDIAG: Allocate 35 x  1 Levels for Diagnostic #   221 TRAC06
(PID.TID 0000.0001) SETDIAG: Allocate 35 x  1 Levels for Diagnostic #   234 TRAC07
(PID.TID 0000.0001) SETDIAG: Allocate 35 x  1 Levels for Diagnostic #   247 TRAC08
(PID.TID 0000.0001) SETDIAG: Allocate 35 x  1 Levels for Diagnostic #   260 TRAC09
(PID.TID 0000.0001) SETDIAG: Allocate 35 x  1 Levels for Diagnostic #   273 TRAC10
(PID.TID 0000.0001) SETDIAG: Allocate 35 x  1 Levels for Diagnostic #   286 TRAC11
(PID.TID 0000.0001) SETDIAG: Allocate 35 x  1 Levels for Diagnostic #   299 TRAC12
(PID.TID 0000.0001) SETDIAG: Allocate 35 x  1 Levels for Diagnostic #   312 TRAC13
(PID.TID 0000.0001) SETDIAG: Allocate 35 x  1 Levels for Diagnostic #   325 TRAC14
(PID.TID 0000.0001) SETDIAG: Allocate 35 x  1 Levels for Diagnostic #   338 TRAC15
(PID.TID 0000.0001) SETDIAG: Allocate 35 x  1 Levels for Diagnostic #   351 TRAC16
(PID.TID 0000.0001) SETDIAG: Allocate 35 x  1 Levels for Diagnostic #   364 TRAC17
(PID.TID 0000.0001) SETDIAG: Allocate 35 x  1 Levels for Diagnostic #   377 TRAC18
(PID.TID 0000.0001) SETDIAG: Allocate 35 x  1 Levels for Diagnostic #   390 TRAC19
(PID.TID 0000.0001) SETDIAG: Allocate 35 x  1 Levels for Diagnostic #   403 TRAC20
(PID.TID 0000.0001) SETDIAG: Allocate 35 x  1 Levels for Diagnostic #   416 TRAC21
(PID.TID 0000.0001) SETDIAG: Allocate 35 x  1 Levels for Diagnostic #   429 TRAC22
(PID.TID 0000.0001) SETDIAG: Allocate 35 x  1 Levels for Diagnostic #   442 TRAC23
(PID.TID 0000.0001) SETDIAG: Allocate 35 x  1 Levels for Diagnostic #   455 TRAC24
(PID.TID 0000.0001) SETDIAG: Allocate 35 x  1 Levels for Diagnostic #   468 TRAC25
(PID.TID 0000.0001) SETDIAG: Allocate 35 x  1 Levels for Diagnostic #   481 TRAC26
(PID.TID 0000.0001) SETDIAG: Allocate 35 x  1 Levels for Diagnostic #   494 TRAC27
(PID.TID 0000.0001) SETDIAG: Allocate 35 x  1 Levels for Diagnostic #   507 TRAC28
(PID.TID 0000.0001) SETDIAG: Allocate 35 x  1 Levels for Diagnostic #   520 TRAC29
(PID.TID 0000.0001) SETDIAG: Allocate 35 x  1 Levels for Diagnostic #   533 TRAC30
(PID.TID 0000.0001) SETDIAG: Allocate 35 x  1 Levels for Diagnostic #   546 TRAC31
(PID.TID 0000.0001) SETDIAG: Allocate 35 x  1 Levels for Diagnostic #   559 TRAC32
(PID.TID 0000.0001) SETDIAG: Allocate 35 x  1 Levels for Diagnostic #   572 TRAC33
(PID.TID 0000.0001) SETDIAG: Allocate 35 x  1 Levels for Diagnostic #   585 TRAC34
(PID.TID 0000.0001) SETDIAG: Allocate 35 x  1 Levels for Diagnostic #   598 TRAC35
(PID.TID 0000.0001) SETDIAG: Allocate 35 x  1 Levels for Diagnostic #   611 TRAC36
(PID.TID 0000.0001) SETDIAG: Allocate 35 x  1 Levels for Diagnostic #   624 TRAC37
(PID.TID 0000.0001) SETDIAG: Allocate 35 x  1 Levels for Diagnostic #   637 TRAC38
(PID.TID 0000.0001) SETDIAG: Allocate 35 x  1 Levels for Diagnostic #   650 TRAC39
(PID.TID 0000.0001) SETDIAG: Allocate 35 x  1 Levels for Diagnostic #   663 TRAC40
(PID.TID 0000.0001) SETDIAG: Allocate 35 x  1 Levels for Diagnostic #   676 TRAC41
(PID.TID 0000.0001) SETDIAG: Allocate 35 x  1 Levels for Diagnostic #   689 TRAC42
(PID.TID 0000.0001) SETDIAG: Allocate 35 x  1 Levels for Diagnostic #   702 TRAC43
(PID.TID 0000.0001) SETDIAG: Allocate 35 x  1 Levels for Diagnostic #   715 TRAC44
(PID.TID 0000.0001) SETDIAG: Allocate 35 x  1 Levels for Diagnostic #   728 TRAC45
(PID.TID 0000.0001) SETDIAG: Allocate 35 x  1 Levels for Diagnostic #   741 TRAC46
(PID.TID 0000.0001) SETDIAG: Allocate 35 x  1 Levels for Diagnostic #   754 TRAC47
(PID.TID 0000.0001) SETDIAG: Allocate 35 x  1 Levels for Diagnostic #   767 TRAC48
(PID.TID 0000.0001) SETDIAG: Allocate 35 x  1 Levels for Diagnostic #   780 TRAC49
(PID.TID 0000.0001) SETDIAG: Allocate 35 x  1 Levels for Diagnostic #   793 TRAC50
(PID.TID 0000.0001) SETDIAG: Allocate 35 x  1 Levels for Diagnostic #   806 TRAC51
(PID.TID 0000.0001) SETDIAG: Allocate 35 x  1 Levels for Diagnostic #   819 TRAC52
(PID.TID 0000.0001) SETDIAG: Allocate 35 x  1 Levels for Diagnostic #   832 TRAC53
(PID.TID 0000.0001) SETDIAG: Allocate 35 x  1 Levels for Diagnostic #   845 TRAC54
(PID.TID 0000.0001) SETDIAG: Allocate 35 x  1 Levels for Diagnostic #   858 TRAC55
(PID.TID 0000.0001) SETDIAG: Allocate 35 x  1 Levels for Diagnostic #   871 TRAC56
(PID.TID 0000.0001) SETDIAG: Allocate 35 x  1 Levels for Diagnostic #   884 TRAC57
(PID.TID 0000.0001) SETDIAG: Allocate 35 x  1 Levels for Diagnostic #   897 TRAC58
(PID.TID 0000.0001) SETDIAG: Allocate 35 x  1 Levels for Diagnostic #   910 TRAC59
(PID.TID 0000.0001) SETDIAG: Allocate 35 x  1 Levels for Diagnostic #   923 TRAC60
(PID.TID 0000.0001) SETDIAG: Allocate 35 x  1 Levels for Diagnostic #   936 TRAC61
(PID.TID 0000.0001) SETDIAG: Allocate 35 x  1 Levels for Diagnostic #   949 TRAC62
(PID.TID 0000.0001) SETDIAG: Allocate 35 x  1 Levels for Diagnostic #   962 TRAC63
(PID.TID 0000.0001) SETDIAG: Allocate 35 x  1 Levels for Diagnostic #   975 TRAC64
(PID.TID 0000.0001) SETDIAG: Allocate 35 x  1 Levels for Diagnostic #   988 TRAC65
(PID.TID 0000.0001) SETDIAG: Allocate 35 x  1 Levels for Diagnostic #  1001 TRAC66
(PID.TID 0000.0001) SETDIAG: Allocate 35 x  1 Levels for Diagnostic #  1014 TRAC67
(PID.TID 0000.0001) SETDIAG: Allocate 35 x  1 Levels for Diagnostic #  1027 TRAC68
(PID.TID 0000.0001) SETDIAG: Allocate 35 x  1 Levels for Diagnostic #  1040 TRAC69
(PID.TID 0000.0001) SETDIAG: Allocate 35 x  1 Levels for Diagnostic #  1053 TRAC70
(PID.TID 0000.0001) SETDIAG: Allocate 35 x  1 Levels for Diagnostic #  1066 TRAC71
(PID.TID 0000.0001) SETDIAG: Allocate 35 x  1 Levels for Diagnostic #  1079 TRAC72
(PID.TID 0000.0001) SETDIAG: Allocate 35 x  1 Levels for Diagnostic #  1092 TRAC73
(PID.TID 0000.0001) SETDIAG: Allocate 35 x  1 Levels for Diagnostic #  1105 TRAC74
(PID.TID 0000.0001) SETDIAG: Allocate 35 x  1 Levels for Diagnostic #  1118 TRAC75
(PID.TID 0000.0001) SETDIAG: Allocate 35 x  1 Levels for Diagnostic #  1131 TRAC76
(PID.TID 0000.0001) SETDIAG: Allocate 35 x  1 Levels for Diagnostic #  1144 TRAC77
(PID.TID 0000.0001) SETDIAG: Allocate 35 x  1 Levels for Diagnostic #  1157 TRAC78
(PID.TID 0000.0001) SETDIAG: Allocate 35 x  1 Levels for Diagnostic #  1170 TRAC79
(PID.TID 0000.0001) SETDIAG: Allocate 35 x  1 Levels for Diagnostic #  1183 TRAC80
(PID.TID 0000.0001) SETDIAG: Allocate 35 x  1 Levels for Diagnostic #  1201 PAR01
(PID.TID 0000.0001) SETDIAG: Allocate 35 x  1 Levels for Diagnostic #  1208 DIC_c01
(PID.TID 0000.0001) SETDIAG: Allocate 35 x  1 Levels for Diagnostic #  1219 DIC_c02
(PID.TID 0000.0001) SETDIAG: Allocate 35 x  1 Levels for Diagnostic #  1209 c01_DOC
(PID.TID 0000.0001) SETDIAG: Allocate 35 x  1 Levels for Diagnostic #  1220 c02_DOC
(PID.TID 0000.0001) SETDIAG: Allocate 35 x  1 Levels for Diagnostic #  1210 c01_POC
(PID.TID 0000.0001) SETDIAG: Allocate 35 x  1 Levels for Diagnostic #  1221 c02_POC
(PID.TID 0000.0001) SETDIAG: Allocate 35 x  1 Levels for Diagnostic #  1200 PARF
(PID.TID 0000.0001) SETDIAG: Allocate 35 x  1 Levels for Diagnostic #  1197 atten
(PID.TID 0000.0001) SETDIAG: Allocate 35 x  1 Levels for Diagnostic #  1199 surfPAR
(PID.TID 0000.0001) SETDIAG: Allocate 35 x  1 Levels for Diagnostic #  1198 exfPAR
(PID.TID 0000.0001) SETDIAG: Allocate 35 x  1 Levels for Diagnostic #  1202 limn01
(PID.TID 0000.0001) SETDIAG: Allocate 35 x  1 Levels for Diagnostic #  1203 limp01
(PID.TID 0000.0001) SETDIAG: Allocate 35 x  1 Levels for Diagnostic #  1204 limsi01
(PID.TID 0000.0001) SETDIAG: Allocate 35 x  1 Levels for Diagnostic #  1205 limfe01
(PID.TID 0000.0001) SETDIAG: Allocate 35 x  1 Levels for Diagnostic #  1206 limI01
(PID.TID 0000.0001) SETDIAG: Allocate 35 x  1 Levels for Diagnostic #  1207 limT01
(PID.TID 0000.0001) SETDIAG: Allocate 35 x  1 Levels for Diagnostic #  1211 c01_c
(PID.TID 0000.0001) SETDIAG: Allocate 35 x  1 Levels for Diagnostic #  1222 c02_c
(PID.TID 0000.0001) SETDIAG: Allocate 35 x  1 Levels for Diagnostic #  1234 c_c03
(PID.TID 0000.0001) SETDIAG: Allocate 35 x  1 Levels for Diagnostic #  1245 c_c04
(PID.TID 0000.0001) SETDIAG: Allocate 35 x  1 Levels for Diagnostic #  1378 c_DOC
(PID.TID 0000.0001) SETDIAG: Allocate 35 x  1 Levels for Diagnostic #  1379 c_POC
(PID.TID 0000.0001) SETDIAG: Allocate 35 x  1 Levels for Diagnostic #  1380 c_PIC
(PID.TID 0000.0001) SETDIAG: Allocate 35 x  1 Levels for Diagnostic #  1381 n_DON
(PID.TID 0000.0001) SETDIAG: Allocate 35 x  1 Levels for Diagnostic #  1382 n_PON
(PID.TID 0000.0001) SETDIAG: Allocate 35 x  1 Levels for Diagnostic #  1383 p_DOP
(PID.TID 0000.0001) SETDIAG: Allocate 35 x  1 Levels for Diagnostic #  1384 p_POP
(PID.TID 0000.0001)   space allocated for all diagnostics:    3780 levels
(PID.TID 0000.0001) DIAGNOSTICS_SET_POINTERS: Set levels for Outp.Stream: darwin
(PID.TID 0000.0001)  Levels:       1.   2.   3.   4.   5.   6.   7.   8.   9.  10.  11.  12.  13.  14.  15.  16.  17.  18.  19.  20.
[...]
 Computing Diagnostic #    182  TRAC03       Counter:       1   Parms: SMR     MR      
 Computing Diagnostic #    195  TRAC04       Counter:       1   Parms: SMR     MR      
 Computing Diagnostic #    208  TRAC05       Counter:       1   Parms: SMR     MR      
 Computing Diagnostic #    221  TRAC06       Counter:       1   Parms: SMR     MR      
 Computing Diagnostic #    234  TRAC07       Counter:       1   Parms: SMR     MR      
 Computing Diagnostic #    247  TRAC08       Counter:       1   Parms: SMR     MR      
 Computing Diagnostic #    260  TRAC09       Counter:       1   Parms: SMR     MR      
 Computing Diagnostic #    273  TRAC10       Counter:       1   Parms: SMR     MR      
 Computing Diagnostic #    286  TRAC11       Counter:       1   Parms: SMR     MR      
 Computing Diagnostic #    299  TRAC12       Counter:       1   Parms: SMR     MR      
 Computing Diagnostic #    312  TRAC13       Counter:       1   Parms: SMR     MR      
 Computing Diagnostic #    325  TRAC14       Counter:       1   Parms: SMR     MR      
 Computing Diagnostic #    338  TRAC15       Counter:       1   Parms: SMR     MR      
 Computing Diagnostic #    351  TRAC16       Counter:       1   Parms: SMR     MR      
 Computing Diagnostic #    364  TRAC17       Counter:       1   Parms: SMR     MR      
 Computing Diagnostic #    377  TRAC18       Counter:       1   Parms: SMR     MR      
 Computing Diagnostic #    390  TRAC19       Counter:       1   Parms: SMR     MR      
 Computing Diagnostic #    403  TRAC20       Counter:       1   Parms: SMR     MR      
 Computing Diagnostic #    416  TRAC21       Counter:       1   Parms: SMR     MR      
 Computing Diagnostic #    429  TRAC22       Counter:       1   Parms: SMR     MR      
 Computing Diagnostic #    442  TRAC23       Counter:       1   Parms: SMR     MR      
 Computing Diagnostic #    455  TRAC24       Counter:       1   Parms: SMR     MR      
 Computing Diagnostic #    468  TRAC25       Counter:       1   Parms: SMR     MR      
 Computing Diagnostic #    481  TRAC26       Counter:       1   Parms: SMR     MR      
 Computing Diagnostic #    494  TRAC27       Counter:       1   Parms: SMR     MR      
 Computing Diagnostic #    507  TRAC28       Counter:       1   Parms: SMR     MR      
 Computing Diagnostic #    520  TRAC29       Counter:       1   Parms: SMR     MR      
 Computing Diagnostic #    533  TRAC30       Counter:       1   Parms: SMR     MR      
 Computing Diagnostic #    546  TRAC31       Counter:       1   Parms: SMR     MR      
 Computing Diagnostic #    559  TRAC32       Counter:       1   Parms: SMR     MR      
 Computing Diagnostic #    572  TRAC33       Counter:       1   Parms: SMR     MR      
 Computing Diagnostic #    585  TRAC34       Counter:       1   Parms: SMR     MR      
 Computing Diagnostic #    598  TRAC35       Counter:       1   Parms: SMR     MR      
 Computing Diagnostic #    611  TRAC36       Counter:       1   Parms: SMR     MR      
 Computing Diagnostic #    624  TRAC37       Counter:       1   Parms: SMR     MR      
 Computing Diagnostic #    637  TRAC38       Counter:       1   Parms: SMR     MR      
 Computing Diagnostic #    650  TRAC39       Counter:       1   Parms: SMR     MR      
 Computing Diagnostic #    663  TRAC40       Counter:       1   Parms: SMR     MR      
 Computing Diagnostic #    676  TRAC41       Counter:       1   Parms: SMR     MR      
 Computing Diagnostic #    689  TRAC42       Counter:       1   Parms: SMR     MR      
 Computing Diagnostic #    702  TRAC43       Counter:       1   Parms: SMR     MR      
 Computing Diagnostic #    715  TRAC44       Counter:       1   Parms: SMR     MR      
 Computing Diagnostic #    728  TRAC45       Counter:       1   Parms: SMR     MR      
 Computing Diagnostic #    741  TRAC46       Counter:       1   Parms: SMR     MR      
 Computing Diagnostic #    754  TRAC47       Counter:       1   Parms: SMR     MR      
 Computing Diagnostic #    767  TRAC48       Counter:       1   Parms: SMR     MR      
 Computing Diagnostic #    780  TRAC49       Counter:       1   Parms: SMR     MR      
 Computing Diagnostic #    793  TRAC50       Counter:       1   Parms: SMR     MR      
 Computing Diagnostic #    806  TRAC51       Counter:       1   Parms: SMR     MR      
 Computing Diagnostic #    819  TRAC52       Counter:       1   Parms: SMR     MR      
 Computing Diagnostic #    832  TRAC53       Counter:       1   Parms: SMR     MR      
 Computing Diagnostic #    845  TRAC54       Counter:       1   Parms: SMR     MR      
 Computing Diagnostic #    858  TRAC55       Counter:       1   Parms: SMR     MR      
 Computing Diagnostic #    871  TRAC56       Counter:       1   Parms: SMR     MR      
 Computing Diagnostic #    884  TRAC57       Counter:       1   Parms: SMR     MR      
 Computing Diagnostic #    897  TRAC58       Counter:       1   Parms: SMR     MR      
 Computing Diagnostic #    910  TRAC59       Counter:       1   Parms: SMR     MR      
 Computing Diagnostic #    923  TRAC60       Counter:       1   Parms: SMR     MR      
 Computing Diagnostic #    936  TRAC61       Counter:       1   Parms: SMR     MR      
 Computing Diagnostic #    949  TRAC62       Counter:       1   Parms: SMR     MR      
 Computing Diagnostic #    962  TRAC63       Counter:       1   Parms: SMR     MR      
 Computing Diagnostic #    975  TRAC64       Counter:       1   Parms: SMR     MR      
 Computing Diagnostic #    988  TRAC65       Counter:       1   Parms: SMR     MR      
 Computing Diagnostic #   1001  TRAC66       Counter:       1   Parms: SMR     MR      
 Computing Diagnostic #   1014  TRAC67       Counter:       1   Parms: SMR     MR      
 Computing Diagnostic #   1027  TRAC68       Counter:       1   Parms: SMR     MR      
 Computing Diagnostic #   1040  TRAC69       Counter:       1   Parms: SMR     MR      
 Computing Diagnostic #   1053  TRAC70       Counter:       1   Parms: SMR     MR      
 Computing Diagnostic #   1066  TRAC71       Counter:       1   Parms: SMR     MR      
 Computing Diagnostic #   1079  TRAC72       Counter:       1   Parms: SMR     MR      
 Computing Diagnostic #   1092  TRAC73       Counter:       1   Parms: SMR     MR      
 Computing Diagnostic #   1105  TRAC74       Counter:       1   Parms: SMR     MR      
 Computing Diagnostic #   1118  TRAC75       Counter:       1   Parms: SMR     MR      
 Computing Diagnostic #   1131  TRAC76       Counter:       1   Parms: SMR     MR      
 Computing Diagnostic #   1144  TRAC77       Counter:       1   Parms: SMR     MR      
 Computing Diagnostic #   1157  TRAC78       Counter:       1   Parms: SMR     MR      
 Computing Diagnostic #   1170  TRAC79       Counter:       1   Parms: SMR     MR      
 Computing Diagnostic #   1183  TRAC80       Counter:       1   Parms: SMR     MR      
 Computing Diagnostic #   1201  PAR01        Counter:       3   Parms: SM P    MR      
 Computing Diagnostic #   1200  PARF         Counter:       3   Parms: SM P    MR      
 Computing Diagnostic #   1197  atten        Counter:       3   Parms: SM P    MR      
 Computing Diagnostic #   1199  surfPAR      Counter:       3   Parms: SM P    MR      
 Computing Diagnostic #   1198  exfPAR       Counter:       1   Parms: SM P    MR      
(PID.TID 0000.0001) %CHECKPOINT         4 ckptA
(PID.TID 0000.0001)   Seconds in section "ALL                    [THE_MODEL_MAIN]":
(PID.TID 0000.0001)           User time:   3.8300000000000001
(PID.TID 0000.0001)         System time:  0.15000000000000002
(PID.TID 0000.0001)     Wall clock time:   4.8343198299407959
(PID.TID 0000.0001)          No. starts:           1
(PID.TID 0000.0001)           No. stops:           1
(PID.TID 0000.0001)   Seconds in section "INITIALISE_FIXED       [THE_MODEL_MAIN]":
(PID.TID 0000.0001)           User time:   1.3900000000000001
(PID.TID 0000.0001)         System time:   3.0000000000000002E-002
(PID.TID 0000.0001)     Wall clock time:   1.5062940120697021
(PID.TID 0000.0001)          No. starts:           1
(PID.TID 0000.0001)           No. stops:           1
(PID.TID 0000.0001)   Seconds in section "THE_MAIN_LOOP          [THE_MODEL_MAIN]":
(PID.TID 0000.0001)           User time:   2.4399999999999999
(PID.TID 0000.0001)         System time:  0.12000000000000001
(PID.TID 0000.0001)     Wall clock time:   3.3203818798065186
(PID.TID 0000.0001)          No. starts:           1
(PID.TID 0000.0001)           No. stops:           1
(PID.TID 0000.0001)   Seconds in section "INITIALISE_VARIA    [THE_MAIN_LOOP]":
(PID.TID 0000.0001)           User time:   5.9999999999999831E-002
(PID.TID 0000.0001)         System time:   2.0000000000000004E-002
(PID.TID 0000.0001)     Wall clock time:  0.14734101295471191
(PID.TID 0000.0001)          No. starts:           1
(PID.TID 0000.0001)           No. stops:           1
(PID.TID 0000.0001)   Seconds in section "MAIN LOOP           [THE_MAIN_LOOP]":
(PID.TID 0000.0001)           User time:   2.3799999999999999
(PID.TID 0000.0001)         System time:  0.10000000000000001
(PID.TID 0000.0001)     Wall clock time:   3.1729950904846191
(PID.TID 0000.0001)          No. starts:           1
(PID.TID 0000.0001)           No. stops:           1
(PID.TID 0000.0001)   Seconds in section "FORWARD_STEP        [THE_MAIN_LOOP]":
(PID.TID 0000.0001)           User time:   2.3799999999999994
(PID.TID 0000.0001)         System time:  0.10000000000000001
(PID.TID 0000.0001)     Wall clock time:   3.1729121208190918
(PID.TID 0000.0001)          No. starts:           4
(PID.TID 0000.0001)           No. stops:           4
(PID.TID 0000.0001)   Seconds in section "DO_STATEVARS_DIAGS  [FORWARD_STEP]":
(PID.TID 0000.0001)           User time:   0.0000000000000000
(PID.TID 0000.0001)         System time:   0.0000000000000000
(PID.TID 0000.0001)     Wall clock time:   6.5960884094238281E-003
(PID.TID 0000.0001)          No. starts:           8
(PID.TID 0000.0001)           No. stops:           8
(PID.TID 0000.0001)   Seconds in section "LOAD_FIELDS_DRIVER  [FORWARD_STEP]":
(PID.TID 0000.0001)           User time:   1.0000000000000231E-002
(PID.TID 0000.0001)         System time:   0.0000000000000000
(PID.TID 0000.0001)     Wall clock time:   2.4253845214843750E-002
(PID.TID 0000.0001)          No. starts:           4
(PID.TID 0000.0001)           No. stops:           4
(PID.TID 0000.0001)   Seconds in section "EXF_GETFORCING     [LOAD_FLDS_DRIVER]":
(PID.TID 0000.0001)           User time:   0.0000000000000000
(PID.TID 0000.0001)         System time:   0.0000000000000000
(PID.TID 0000.0001)     Wall clock time:   3.8900375366210938E-003
(PID.TID 0000.0001)          No. starts:           4
(PID.TID 0000.0001)           No. stops:           4
(PID.TID 0000.0001)   Seconds in section "EXTERNAL_FLDS_LOAD [LOAD_FLDS_DRIVER]":
(PID.TID 0000.0001)           User time:   0.0000000000000000
(PID.TID 0000.0001)         System time:   0.0000000000000000
(PID.TID 0000.0001)     Wall clock time:   1.2360572814941406E-002
(PID.TID 0000.0001)          No. starts:           4
(PID.TID 0000.0001)           No. stops:           4
(PID.TID 0000.0001)   Seconds in section "DO_ATMOSPHERIC_PHYS [FORWARD_STEP]":
(PID.TID 0000.0001)           User time:   0.0000000000000000
(PID.TID 0000.0001)         System time:   0.0000000000000000
(PID.TID 0000.0001)     Wall clock time:   5.8889389038085938E-005
(PID.TID 0000.0001)          No. starts:           4
(PID.TID 0000.0001)           No. stops:           4
(PID.TID 0000.0001)   Seconds in section "DO_OCEANIC_PHYS     [FORWARD_STEP]":
(PID.TID 0000.0001)           User time:   1.0000000000000231E-002
(PID.TID 0000.0001)         System time:   0.0000000000000000
(PID.TID 0000.0001)     Wall clock time:   7.5547695159912109E-003
(PID.TID 0000.0001)          No. starts:           4
(PID.TID 0000.0001)           No. stops:           4
(PID.TID 0000.0001)   Seconds in section "KPP_CALC [DO_OCEANIC_PHYS]":
(PID.TID 0000.0001)           User time:   0.0000000000000000
(PID.TID 0000.0001)         System time:   0.0000000000000000
(PID.TID 0000.0001)     Wall clock time:   6.4406394958496094E-003
(PID.TID 0000.0001)          No. starts:           4
(PID.TID 0000.0001)           No. stops:           4
(PID.TID 0000.0001)   Seconds in section "GCHEM_CALC_TENDENCY [FORWARD_STEP]":
(PID.TID 0000.0001)           User time:   0.0000000000000000
(PID.TID 0000.0001)         System time:   0.0000000000000000
(PID.TID 0000.0001)     Wall clock time:   5.7697296142578125E-005
(PID.TID 0000.0001)          No. starts:           4
(PID.TID 0000.0001)           No. stops:           4
(PID.TID 0000.0001)   Seconds in section "THERMODYNAMICS      [FORWARD_STEP]":
(PID.TID 0000.0001)           User time:  0.24000000000000021
(PID.TID 0000.0001)         System time:   0.0000000000000000
(PID.TID 0000.0001)     Wall clock time:  0.23775362968444824
(PID.TID 0000.0001)          No. starts:           4
(PID.TID 0000.0001)           No. stops:           4
(PID.TID 0000.0001)   Seconds in section "TRC_CORRECTION_STEP [FORWARD_STEP]":
(PID.TID 0000.0001)           User time:   0.0000000000000000
(PID.TID 0000.0001)         System time:   0.0000000000000000
(PID.TID 0000.0001)     Wall clock time:   3.3953189849853516E-003
(PID.TID 0000.0001)          No. starts:           4
(PID.TID 0000.0001)           No. stops:           4
(PID.TID 0000.0001)   Seconds in section "GCHEM_FORCING_SEP  [FORWARD_STEP]":
(PID.TID 0000.0001)           User time:   9.0000000000000302E-002
(PID.TID 0000.0001)         System time:   0.0000000000000000
(PID.TID 0000.0001)     Wall clock time:   8.1307888031005859E-002
(PID.TID 0000.0001)          No. starts:           4
(PID.TID 0000.0001)           No. stops:           4
(PID.TID 0000.0001)   Seconds in section "DARWIN_FORCING [GCHEM_FORCING_SEP]":
(PID.TID 0000.0001)           User time:   5.9999999999999609E-002
(PID.TID 0000.0001)         System time:   0.0000000000000000
(PID.TID 0000.0001)     Wall clock time:   5.6782245635986328E-002
(PID.TID 0000.0001)          No. starts:          12
(PID.TID 0000.0001)           No. stops:          12
(PID.TID 0000.0001)   Seconds in section "DARWIN_LIGHT [DARWIN_FORCING]":
(PID.TID 0000.0001)           User time:   0.0000000000000000
(PID.TID 0000.0001)         System time:   0.0000000000000000
(PID.TID 0000.0001)     Wall clock time:   2.5484561920166016E-003
(PID.TID 0000.0001)          No. starts:          12
(PID.TID 0000.0001)           No. stops:          12
(PID.TID 0000.0001)   Seconds in section "DARWIN_FE_CHEM1 [DARWIN_FORCING]":
(PID.TID 0000.0001)           User time:   0.0000000000000000
(PID.TID 0000.0001)         System time:   0.0000000000000000
(PID.TID 0000.0001)     Wall clock time:   3.3926963806152344E-004
(PID.TID 0000.0001)          No. starts:          12
(PID.TID 0000.0001)           No. stops:          12
(PID.TID 0000.0001)   Seconds in section "DARWIN_MODEL [DARWIN_FORCING]":
(PID.TID 0000.0001)           User time:   0.0000000000000000
(PID.TID 0000.0001)         System time:   0.0000000000000000
(PID.TID 0000.0001)     Wall clock time:   5.3126811981201172E-003
(PID.TID 0000.0001)          No. starts:          12
(PID.TID 0000.0001)           No. stops:          12
(PID.TID 0000.0001)   Seconds in section "DARWIN_GRAZING [DARWIN_FORCING]":
(PID.TID 0000.0001)           User time:   0.0000000000000000
(PID.TID 0000.0001)         System time:   0.0000000000000000
(PID.TID 0000.0001)     Wall clock time:   3.5135746002197266E-003
(PID.TID 0000.0001)          No. starts:          12
(PID.TID 0000.0001)           No. stops:          12
(PID.TID 0000.0001)   Seconds in section "DARWIN_SINKING [DARWIN_FORCING]":
(PID.TID 0000.0001)           User time:   5.9999999999999609E-002
(PID.TID 0000.0001)         System time:   0.0000000000000000
(PID.TID 0000.0001)     Wall clock time:   4.3404817581176758E-002
(PID.TID 0000.0001)          No. starts:          12
(PID.TID 0000.0001)           No. stops:          12
(PID.TID 0000.0001)   Seconds in section "DIAGS_FILL [DARWIN_FORCING]":
(PID.TID 0000.0001)           User time:   0.0000000000000000
(PID.TID 0000.0001)         System time:   0.0000000000000000
(PID.TID 0000.0001)     Wall clock time:   3.8647651672363281E-004
(PID.TID 0000.0001)          No. starts:          12
(PID.TID 0000.0001)           No. stops:          12
(PID.TID 0000.0001)   Seconds in section "DARWIN_FE_CHEM1 [GCHEM_FORCING_SEP]":
(PID.TID 0000.0001)           User time:   0.0000000000000000
(PID.TID 0000.0001)         System time:   0.0000000000000000
(PID.TID 0000.0001)     Wall clock time:   3.5810470581054688E-004
(PID.TID 0000.0001)          No. starts:          12
(PID.TID 0000.0001)           No. stops:          12
(PID.TID 0000.0001)   Seconds in section "BLOCKING_EXCHANGES  [FORWARD_STEP]":
(PID.TID 0000.0001)           User time:   0.0000000000000000
(PID.TID 0000.0001)         System time:   0.0000000000000000
(PID.TID 0000.0001)     Wall clock time:   1.1405467987060547E-002
(PID.TID 0000.0001)          No. starts:           4
(PID.TID 0000.0001)           No. stops:           4
(PID.TID 0000.0001)   Seconds in section "DO_STATEVARS_TAVE   [FORWARD_STEP]":
(PID.TID 0000.0001)           User time:   0.0000000000000000
(PID.TID 0000.0001)         System time:   0.0000000000000000
(PID.TID 0000.0001)     Wall clock time:   5.1498413085937500E-004
(PID.TID 0000.0001)          No. starts:           4
(PID.TID 0000.0001)           No. stops:           4
(PID.TID 0000.0001)   Seconds in section "MONITOR             [FORWARD_STEP]":
(PID.TID 0000.0001)           User time:   0.0000000000000000
(PID.TID 0000.0001)         System time:   0.0000000000000000
(PID.TID 0000.0001)     Wall clock time:   4.5678615570068359E-003
(PID.TID 0000.0001)          No. starts:           4
(PID.TID 0000.0001)           No. stops:           4
(PID.TID 0000.0001)   Seconds in section "DO_THE_MODEL_IO     [FORWARD_STEP]":
(PID.TID 0000.0001)           User time:   2.0199999999999991
(PID.TID 0000.0001)         System time:   8.9999999999999997E-002
(PID.TID 0000.0001)     Wall clock time:   2.6607537269592285
(PID.TID 0000.0001)          No. starts:           4
(PID.TID 0000.0001)           No. stops:           4
(PID.TID 0000.0001)   Seconds in section "DO_WRITE_PICKUP     [FORWARD_STEP]":
(PID.TID 0000.0001)           User time:   9.9999999999997868E-003
(PID.TID 0000.0001)         System time:   1.0000000000000009E-002
(PID.TID 0000.0001)     Wall clock time:  0.13376903533935547
(PID.TID 0000.0001)          No. starts:           4
(PID.TID 0000.0001)           No. stops:           4
(PID.TID 0000.0001) // ======================================================
(PID.TID 0000.0001) // Tile <-> Tile communication statistics
(PID.TID 0000.0001) // ======================================================
(PID.TID 0000.0001) // o Tile number: 000001
(PID.TID 0000.0001) //         No. X exchanges =              0
(PID.TID 0000.0001) //            Max. X spins =              0
(PID.TID 0000.0001) //            Min. X spins =     1000000000
(PID.TID 0000.0001) //          Total. X spins =              0
(PID.TID 0000.0001) //            Avg. X spins =       0.00E+00
(PID.TID 0000.0001) //         No. Y exchanges =              0
(PID.TID 0000.0001) //            Max. Y spins =              0
(PID.TID 0000.0001) //            Min. Y spins =     1000000000
(PID.TID 0000.0001) //          Total. Y spins =              0
(PID.TID 0000.0001) //            Avg. Y spins =       0.00E+00
(PID.TID 0000.0001) // o Thread number: 000001
(PID.TID 0000.0001) //            No. barriers =          13668
(PID.TID 0000.0001) //      Max. barrier spins =              1
(PID.TID 0000.0001) //      Min. barrier spins =              1
(PID.TID 0000.0001) //     Total barrier spins =          13668
(PID.TID 0000.0001) //      Avg. barrier spins =       1.00E+00
PROGRAM MAIN: Execution ended Normally
