(PID.TID 0000.0001) 
(PID.TID 0000.0001) // ======================================================
(PID.TID 0000.0001) //                      MITgcm UV
(PID.TID 0000.0001) //                      =========
(PID.TID 0000.0001) // ======================================================
(PID.TID 0000.0001) // execution environment starting up...
(PID.TID 0000.0001) 
(PID.TID 0000.0001) // Build user:        jahn
(PID.TID 0000.0001) // Build host:        node204
(PID.TID 0000.0001) // Build date:        Fri May  2 14:13:03 EDT 2014
(PID.TID 0000.0001) 
(PID.TID 0000.0001) // =======================================================
(PID.TID 0000.0001) // Execution Environment parameter file "eedata"
(PID.TID 0000.0001) // =======================================================
(PID.TID 0000.0001) ># Example "eedata" file
(PID.TID 0000.0001) ># Lines beginning "#" are comments
(PID.TID 0000.0001) ># nTx - No. threads per process in X
(PID.TID 0000.0001) ># nTy - No. threads per process in Y
(PID.TID 0000.0001) > &EEPARMS
(PID.TID 0000.0001) > nTx=1,nTy=1
(PID.TID 0000.0001) > /
(PID.TID 0000.0001) ># Note: Some systems use & as the
(PID.TID 0000.0001) ># namelist terminator. Other systems
(PID.TID 0000.0001) ># use a / character (as shown here).
(PID.TID 0000.0001) 
(PID.TID 0000.0001) // =======================================================
(PID.TID 0000.0001) // Computational Grid Specification ( see files "SIZE.h" )
(PID.TID 0000.0001) //                                  ( and "eedata"       )
(PID.TID 0000.0001) // =======================================================
(PID.TID 0000.0001)      nPx =    8 ; /* No. processes in X */
(PID.TID 0000.0001)      nPy =    4 ; /* No. processes in Y */
(PID.TID 0000.0001)      nSx =    1 ; /* No. tiles in X per process */
(PID.TID 0000.0001)      nSy =    1 ; /* No. tiles in Y per process */
(PID.TID 0000.0001)      sNx =   45 ; /* Tile size in X */
(PID.TID 0000.0001)      sNy =   40 ; /* Tile size in Y */
(PID.TID 0000.0001)      OLx =    4 ; /* Tile overlap distance in X */
(PID.TID 0000.0001)      OLy =    4 ; /* Tile overlap distance in Y */
(PID.TID 0000.0001)      nTx =    1 ; /* No. threads in X per process */
(PID.TID 0000.0001)      nTy =    1 ; /* No. threads in Y per process */
(PID.TID 0000.0001)       Nr =   23 ; /* No. levels in the vertical   */
(PID.TID 0000.0001)       Nx =  360 ; /* Total domain size in X ( = nPx*nSx*sNx ) */
(PID.TID 0000.0001)       Ny =  160 ; /* Total domain size in Y ( = nPy*nSy*sNy ) */
(PID.TID 0000.0001)   nTiles =    1 ; /* Total no. tiles per process ( = nSx*nSy ) */
(PID.TID 0000.0001)   nProcs =   32 ; /* Total no. processes ( = nPx*nPy ) */
(PID.TID 0000.0001) nThreads =    1 ; /* Total no. threads per process ( = nTx*nTy ) */
(PID.TID 0000.0001) usingMPI =    T ; /* Flag used to control whether MPI is in use */
(PID.TID 0000.0001)                   /*  note: To execute a program with MPI calls */
(PID.TID 0000.0001)                   /*  it must be launched appropriately e.g     */
(PID.TID 0000.0001)                   /*  "mpirun -np 64 ......"                    */
(PID.TID 0000.0001) useCoupler=    F ;/* Flag used to control communications with   */
(PID.TID 0000.0001)                   /*  other model components, through a coupler */
(PID.TID 0000.0001) debugMode =    F ; /* print debug msg. (sequence of S/R calls)  */
(PID.TID 0000.0001) printMapIncludesZeros=    F ; /* print zeros in Std.Output maps */
(PID.TID 0000.0001) maxLengthPrt1D=   65 /* maxLength of 1D array printed to StdOut */
(PID.TID 0000.0001) 
(PID.TID 0000.0001) ======= Starting MPI parallel Run =========
(PID.TID 0000.0001)  My Processor Name (len:  7 ) = node204
(PID.TID 0000.0001)  Located at (  0,  0) on processor grid (0:  7,0:  3)
(PID.TID 0000.0001)  Origin at  (     1,     1) on global grid (1:   360,1:   160)
(PID.TID 0000.0001)  North neighbor = processor 0001
(PID.TID 0000.0001)  South neighbor = processor 0003
(PID.TID 0000.0001)   East neighbor = processor 0004
(PID.TID 0000.0001)   West neighbor = processor 0028
(PID.TID 0000.0001) // ======================================================
(PID.TID 0000.0001) // Mapping of tiles to threads
(PID.TID 0000.0001) // ======================================================
(PID.TID 0000.0001) // -o- Thread   1, tiles (   1:   1,   1:   1)
(PID.TID 0000.0001) 
(PID.TID 0000.0001) // ======================================================
(PID.TID 0000.0001) // Tile <-> Tile connectvity table
(PID.TID 0000.0001) // ======================================================
(PID.TID 0000.0001) // Tile number: 000001 (process no. = 000000)
(PID.TID 0000.0001) //        WEST: Tile = 000008, Process = 000028, Comm = messages
(PID.TID 0000.0001) //                bi = 000001, bj = 000001
(PID.TID 0000.0001) //        EAST: Tile = 000002, Process = 000004, Comm = messages
(PID.TID 0000.0001) //                bi = 000001, bj = 000001
(PID.TID 0000.0001) //       SOUTH: Tile = 000025, Process = 000003, Comm = messages
(PID.TID 0000.0001) //                bi = 000001, bj = 000001
(PID.TID 0000.0001) //       NORTH: Tile = 000009, Process = 000001, Comm = messages
(PID.TID 0000.0001) //                bi = 000001, bj = 000001
(PID.TID 0000.0001) 
(PID.TID 0000.0001)  INI_PARMS: opening model parameter file "data"
(PID.TID 0000.0001)  OPEN_COPY_DATA_FILE: opening file data
(PID.TID 0000.0001) // =======================================================
(PID.TID 0000.0001) // Parameter file "data"
(PID.TID 0000.0001) // =======================================================
(PID.TID 0000.0001) >#
(PID.TID 0000.0001) ># ******************************
(PID.TID 0000.0001) ># Model parameters
(PID.TID 0000.0001) ># Continuous equation parameters
(PID.TID 0000.0001) ># ******************************
(PID.TID 0000.0001) >&PARM01
(PID.TID 0000.0001) >tRef= 24.0 , 23.0 , 22.0 , 21.0 , 20.0 ,
(PID.TID 0000.0001) >      19.0 , 18.0 , 17.0 , 16.0 , 15.0 ,
(PID.TID 0000.0001) >      14.0 , 13.0 , 12.0 , 11.0 , 10.0 ,
(PID.TID 0000.0001) >       9.0 ,  8.0 ,  7.0 ,  6.0,   5.0 ,
(PID.TID 0000.0001) >       4.0 ,  3.0 ,  2.0 ,
(PID.TID 0000.0001) >sRef= 34.65, 34.75, 34.82, 34.87, 34.90,
(PID.TID 0000.0001) >      34.90, 34.86, 34.78, 34.69, 34.60,
(PID.TID 0000.0001) >      34.58, 34.62, 34.68, 34.72, 34.73,
(PID.TID 0000.0001) >      34.74, 34.73, 34.73, 34.72, 34.72,
(PID.TID 0000.0001) >      34.71, 34.70, 34.69,
(PID.TID 0000.0001) >no_slip_sides=.false.,
(PID.TID 0000.0001) >no_slip_bottom=.TRUE.,
(PID.TID 0000.0001) >viscAz=1.E-3,
(PID.TID 0000.0001) >viscAh=1.E4,
(PID.TID 0000.0001) >diffKhT=1.E2,
(PID.TID 0000.0001) >diffKzT=1.E-5,
(PID.TID 0000.0001) >diffKhS=1.E2,
(PID.TID 0000.0001) >diffKzS=1.E-5,
(PID.TID 0000.0001) >beta=1.E-11,
(PID.TID 0000.0001) >tAlpha=2.E-4,
(PID.TID 0000.0001) >sBeta =7.4E-4,
(PID.TID 0000.0001) >gravity=9.81,
(PID.TID 0000.0001) >gBaro=9.81,
(PID.TID 0000.0001) >rigidLid=.FALSE.,
(PID.TID 0000.0001) >implicitFreeSurface=.true.,
(PID.TID 0000.0001) >eosType='POLY3',
(PID.TID 0000.0001) >saltStepping=.TRUE.,
(PID.TID 0000.0001) >tempStepping=.TRUE.,
(PID.TID 0000.0001) >momStepping=.TRUE.,
(PID.TID 0000.0001) >implicitDiffusion=.true.,
(PID.TID 0000.0001) >implicitViscosity=.true.,
(PID.TID 0000.0001) >allowFreezing=.false.,
(PID.TID 0000.0001) >useSingleCpuIO=.TRUE.,
(PID.TID 0000.0001) >useCDscheme=.FALSE.,
(PID.TID 0000.0001) >tempAdvScheme = 3,
(PID.TID 0000.0001) >saltAdvScheme = 3,
(PID.TID 0000.0001) >writeBinaryPrec= 64,
(PID.TID 0000.0001) >/
(PID.TID 0000.0001) >
(PID.TID 0000.0001) ># **************************
(PID.TID 0000.0001) ># Elliptic solver parameters
(PID.TID 0000.0001) ># **************************
(PID.TID 0000.0001) >&PARM02
(PID.TID 0000.0001) >cg2dMaxIters=300,
(PID.TID 0000.0001) >cg2dTargetResidual=1.E-7,
(PID.TID 0000.0001) >/
(PID.TID 0000.0001) >
(PID.TID 0000.0001) ># ************************
(PID.TID 0000.0001) ># Time stepping parameters
(PID.TID 0000.0001) ># ************************
(PID.TID 0000.0001) >&PARM03
(PID.TID 0000.0001) > nIter0=0,
(PID.TID 0000.0001) > nTimeSteps=4,
(PID.TID 0000.0001) > deltaTmom=10800.,
(PID.TID 0000.0001) > deltaTtracer=10800.,
(PID.TID 0000.0001) > deltaTClock =10800.,
(PID.TID 0000.0001) > abEps=0.1,
(PID.TID 0000.0001) > pChkptFreq  = 31104000.,
(PID.TID 0000.0001) > chkptFreq   = 31104000.,
(PID.TID 0000.0001) >#pChkptFreq  = 2592000.,
(PID.TID 0000.0001) >#chkptFreq   = 2592000.,
(PID.TID 0000.0001) > dumpFreq    = 31104000.,
(PID.TID 0000.0001) > taveFreq    = 31104000.,
(PID.TID 0000.0001) >#taveFreq    = 86400.,
(PID.TID 0000.0001) >#dumpFreq    = 2592000.,
(PID.TID 0000.0001) >#taveFreq    = 2592000.,
(PID.TID 0000.0001) > monitorFreq = 2592000.,
(PID.TID 0000.0001) > monitorFreq = 1.,
(PID.TID 0000.0001) >#monitorFreq = 31104000.,
(PID.TID 0000.0001) > tauThetaClimRelax=0.,
(PID.TID 0000.0001) > tauSaltClimRelax=0.,
(PID.TID 0000.0001) > periodicExternalForcing=.TRUE.,
(PID.TID 0000.0001) > externForcingPeriod=2592000.,
(PID.TID 0000.0001) > externForcingCycle=31104000.,
(PID.TID 0000.0001) >/
(PID.TID 0000.0001) >
(PID.TID 0000.0001) ># *******************
(PID.TID 0000.0001) ># Gridding parameters
(PID.TID 0000.0001) ># *******************
(PID.TID 0000.0001) >&PARM04
(PID.TID 0000.0001) >usingCartesianGrid=.FALSE.,
(PID.TID 0000.0001) >usingSphericalPolarGrid=.TRUE.,
(PID.TID 0000.0001) >delX=360*1.E0,
(PID.TID 0000.0001) >delY=160*1.E0,
(PID.TID 0000.0001) >delZ=10.,10.,15.,20.,20.,25.,35.,50.,75.,
(PID.TID 0000.0001) >100.,150.,200.,275.,350.,415.,450.,500.,
(PID.TID 0000.0001) >500.,500.,500.,500.,500.,500.,
(PID.TID 0000.0001) >xgOrigin=0,
(PID.TID 0000.0001) >ygOrigin=-80.,
(PID.TID 0000.0001) >/
(PID.TID 0000.0001) >
(PID.TID 0000.0001) ># **********
(PID.TID 0000.0001) ># Data Files
(PID.TID 0000.0001) ># **********
(PID.TID 0000.0001) >&PARM05
(PID.TID 0000.0001) >bathyFile=       '../input/input/bathy_fl.bin',
(PID.TID 0000.0001) >#hydrogThetaFile= 'input/LEVITUS_1x1_ptmp_NEW_corK',
(PID.TID 0000.0001) >#hydrogSaltFile=  'input/LEVITUS_1x1_salt_NEW_corK',
(PID.TID 0000.0001) >zonalWindFile=   '',
(PID.TID 0000.0001) >meridWindFile=   '',
(PID.TID 0000.0001) >thetaClimFile=   '',
(PID.TID 0000.0001) >saltClimFile=    '',
(PID.TID 0000.0001) >surfQFile=       '',
(PID.TID 0000.0001) >EmPmRFile=       '',
(PID.TID 0000.0001) >/
(PID.TID 0000.0001) 
(PID.TID 0000.0001)  INI_PARMS ; starts to read PARM01
(PID.TID 0000.0001)  INI_PARMS ; read PARM01 : OK
(PID.TID 0000.0001)  INI_PARMS ; starts to read PARM02
(PID.TID 0000.0001)  INI_PARMS ; read PARM02 : OK
(PID.TID 0000.0001)  INI_PARMS ; starts to read PARM03
(PID.TID 0000.0001)  INI_PARMS ; read PARM03 : OK
(PID.TID 0000.0001)  INI_PARMS ; starts to read PARM04
(PID.TID 0000.0001)  INI_PARMS ; read PARM04 : OK
(PID.TID 0000.0001)  INI_PARMS ; starts to read PARM05
(PID.TID 0000.0001)  INI_PARMS ; read PARM05 : OK
(PID.TID 0000.0001)  INI_PARMS: finished reading file "data"
(PID.TID 0000.0001)  PACKAGES_BOOT: opening data.pkg
(PID.TID 0000.0001)  OPEN_COPY_DATA_FILE: opening file data.pkg
(PID.TID 0000.0001) // =======================================================
(PID.TID 0000.0001) // Parameter file "data.pkg"
(PID.TID 0000.0001) // =======================================================
(PID.TID 0000.0001) ># Packages
(PID.TID 0000.0001) > &PACKAGES
(PID.TID 0000.0001) > useGMRedi=.TRUE.
(PID.TID 0000.0001) > usePTRACERS=.TRUE.
(PID.TID 0000.0001) > useGCHEM=.TRUE.,
(PID.TID 0000.0001) > useKPP=.TRUE.,
(PID.TID 0000.0001) > useMNC=.TRUE.,
(PID.TID 0000.0001) > useEXF=.TRUE.,
(PID.TID 0000.0001) > useOFFLINE=.TRUE.,
(PID.TID 0000.0001) > /
(PID.TID 0000.0001) 
(PID.TID 0000.0001)  PACKAGES_BOOT: finished reading data.pkg
(PID.TID 0000.0001)  MNC_READPARMS: opening file 'data.mnc'
(PID.TID 0000.0001)  OPEN_COPY_DATA_FILE: opening file data.mnc
(PID.TID 0000.0001) // =======================================================
(PID.TID 0000.0001) // Parameter file "data.mnc"
(PID.TID 0000.0001) // =======================================================
(PID.TID 0000.0001) ># Example "data.mnc" file
(PID.TID 0000.0001) ># Lines beginning "#" are comments
(PID.TID 0000.0001) > &MNC_01
(PID.TID 0000.0001) ># mnc_echo_gvtypes=.FALSE.,
(PID.TID 0000.0001) ># mnc_use_indir=.FALSE.,
(PID.TID 0000.0001) > mnc_use_outdir=.TRUE.,
(PID.TID 0000.0001) > mnc_outdir_str='ecco_darwin_',
(PID.TID 0000.0001) > mnc_outdir_date=.TRUE.,
(PID.TID 0000.0001) > monitor_mnc=.FALSE.,
(PID.TID 0000.0001) > snapshot_mnc=.TRUE.,
(PID.TID 0000.0001) > timeave_mnc=.TRUE.,
(PID.TID 0000.0001) > pickup_read_mnc=.FALSE.,
(PID.TID 0000.0001) > pickup_write_mnc=.FALSE.,
(PID.TID 0000.0001) > mnc_filefreq = 2592000.,
(PID.TID 0000.0001) > /
(PID.TID 0000.0001) ># Note: Some systems use & as the
(PID.TID 0000.0001) ># namelist terminator. Other systems
(PID.TID 0000.0001) ># use a / character.
(PID.TID 0000.0001) 
(PID.TID 0000.0001)  MNC_READPARMS: finished reading data.mnc
(PID.TID 0000.0001) CAL_READPARMS: opening data.cal
(PID.TID 0000.0001)  OPEN_COPY_DATA_FILE: opening file data.cal
(PID.TID 0000.0001) // =======================================================
(PID.TID 0000.0001) // Parameter file "data.cal"
(PID.TID 0000.0001) // =======================================================
(PID.TID 0000.0001) ># *******************
(PID.TID 0000.0001) ># Calendar Parameters
(PID.TID 0000.0001) ># *******************
(PID.TID 0000.0001) > &CAL_NML
(PID.TID 0000.0001) > TheCalendar='model',
(PID.TID 0000.0001) > startDate_1=20000101,
(PID.TID 0000.0001) > startDate_2=000000,
(PID.TID 0000.0001) > calendarDumps = .TRUE.
(PID.TID 0000.0001) > /
(PID.TID 0000.0001) 
(PID.TID 0000.0001) CAL_READPARMS: finished reading data.cal
(PID.TID 0000.0001) EXF_READPARMS: opening data.exf
(PID.TID 0000.0001)  OPEN_COPY_DATA_FILE: opening file data.exf
(PID.TID 0000.0001) // =======================================================
(PID.TID 0000.0001) // Parameter file "data.exf"
(PID.TID 0000.0001) // =======================================================
(PID.TID 0000.0001) ># *********************
(PID.TID 0000.0001) ># External Forcing Data
(PID.TID 0000.0001) ># *********************
(PID.TID 0000.0001) >#
(PID.TID 0000.0001) > &EXF_NML_01
(PID.TID 0000.0001) > exf_iprec         = 32,
(PID.TID 0000.0001) > exf_yftype        = 'RL',
(PID.TID 0000.0001) > useExfYearlyFields= .TRUE.,
(PID.TID 0000.0001) > twoDigitYear      = .TRUE.,
(PID.TID 0000.0001) > useExfCheckRange  = .FALSE.,
(PID.TID 0000.0001) > /
(PID.TID 0000.0001) >#
(PID.TID 0000.0001) > &EXF_NML_02
(PID.TID 0000.0001) > /
(PID.TID 0000.0001) >#
(PID.TID 0000.0001) > &EXF_NML_03
(PID.TID 0000.0001) > /
(PID.TID 0000.0001) >#
(PID.TID 0000.0001) > &EXF_NML_04
(PID.TID 0000.0001) > /
(PID.TID 0000.0001) 
(PID.TID 0000.0001) EXF_READPARMS: reading EXF_NML_01
(PID.TID 0000.0001) EXF_READPARMS: reading EXF_NML_02
(PID.TID 0000.0001) EXF_READPARMS: reading EXF_NML_03
(PID.TID 0000.0001) EXF_READPARMS: finished reading data.exf
(PID.TID 0000.0001)  GM_READPARMS: opening data.gmredi
(PID.TID 0000.0001)  OPEN_COPY_DATA_FILE: opening file data.gmredi
(PID.TID 0000.0001) // =======================================================
(PID.TID 0000.0001) // Parameter file "data.gmredi"
(PID.TID 0000.0001) // =======================================================
(PID.TID 0000.0001) ># GM+Redi package parameters:
(PID.TID 0000.0001) >#     GM_Small_Number  :: epsilon used in computing the slope
(PID.TID 0000.0001) >#     GM_slopeSqCutoff :: slope^2 cut-off value
(PID.TID 0000.0001) >
(PID.TID 0000.0001) >#-from MOM :
(PID.TID 0000.0001) ># GM_background_K:      G & Mc.W  diffusion coefficient
(PID.TID 0000.0001) ># GM_maxSlope    :      max slope of isopycnals
(PID.TID 0000.0001) ># GM_Scrit       :      transition for scaling diffusion coefficient
(PID.TID 0000.0001) ># GM_Sd          :      half width scaling for diffusion coefficient
(PID.TID 0000.0001) ># GM_taper_scheme:      slope clipping or one of the tapering schemes
(PID.TID 0000.0001) ># GM_Kmin_horiz  :      horizontal diffusion minimum value
(PID.TID 0000.0001) >
(PID.TID 0000.0001) >#-Option parameters (needs to "define" options in GMREDI_OPTIONS.h")
(PID.TID 0000.0001) ># GM_isopycK     :      isopycnal diffusion coefficient
(PID.TID 0000.0001) >(default=GM_background_K)
(PID.TID 0000.0001) ># GM_AdvForm     :      turn on GM Advective form       (default=Skew flux
(PID.TID 0000.0001) >form)
(PID.TID 0000.0001) >
(PID.TID 0000.0001) > &GM_PARM01
(PID.TID 0000.0001) >  GM_Small_Number    = 1.D-20,
(PID.TID 0000.0001) >  GM_slopeSqCutoff   = 1.D+08,
(PID.TID 0000.0001) >  GM_AdvForm         = .FALSE.,
(PID.TID 0000.0001) >  GM_isopycK         = 1.D+3,
(PID.TID 0000.0001) >  GM_background_K    = 1.D+3,
(PID.TID 0000.0001) >  GM_maxSlope        = 1.D-2,
(PID.TID 0000.0001) >  GM_taper_scheme    = 'dm95',
(PID.TID 0000.0001) >  GM_Kmin_horiz      = 50.,
(PID.TID 0000.0001) >  GM_Scrit           = 4.D-3,
(PID.TID 0000.0001) >  GM_Sd              = 1.D-3,
(PID.TID 0000.0001) >#
(PID.TID 0000.0001) >###  GM_Visbeck_alpha   = 1.5D-2,
(PID.TID 0000.0001) >###  GM_Visbeck_alpha   = 0.D0,
(PID.TID 0000.0001) >###  GM_Visbeck_length  = 2.D+5,
(PID.TID 0000.0001) >###  GM_Visbeck_depth   = 1.D+3,
(PID.TID 0000.0001) >###  GM_Visbeck_maxval_K= 2.5D+3,
(PID.TID 0000.0001) > /
(PID.TID 0000.0001) >
(PID.TID 0000.0001) 
(PID.TID 0000.0001)  GM_READPARMS: finished reading data.gmredi
(PID.TID 0000.0001)  KPP_INIT: opening data.kpp
(PID.TID 0000.0001)  OPEN_COPY_DATA_FILE: opening file data.kpp
(PID.TID 0000.0001) // =======================================================
(PID.TID 0000.0001) // Parameter file "data.kpp"
(PID.TID 0000.0001) // =======================================================
(PID.TID 0000.0001) >#
(PID.TID 0000.0001) ># ***************
(PID.TID 0000.0001) ># Open boundaries
(PID.TID 0000.0001) ># ***************
(PID.TID 0000.0001) > &KPP_PARM01
(PID.TID 0000.0001) ># KPPwriteState   = .TRUE.,
(PID.TID 0000.0001) > /
(PID.TID 0000.0001) 
(PID.TID 0000.0001)  KPP_INIT: finished reading data.kpp
(PID.TID 0000.0001)  OFFLINE_READPARMS: opening data.off
(PID.TID 0000.0001)  OPEN_COPY_DATA_FILE: opening file data.off
(PID.TID 0000.0001) // =======================================================
(PID.TID 0000.0001) // Parameter file "data.off"
(PID.TID 0000.0001) // =======================================================
(PID.TID 0000.0001) > &OFFLINE_PARM01
(PID.TID 0000.0001) >  UvelFile= '/nobackup1/stephdut/ECCO_Iter3.73daily/DDuvel/DDuvel',
(PID.TID 0000.0001) >  VvelFile= '/nobackup1/stephdut/ECCO_Iter3.73daily/DDvvel/DDvvel',
(PID.TID 0000.0001) >  WvelFile= '/nobackup1/stephdut/ECCO_Iter3.73daily/DDwvel/DDwvel',
(PID.TID 0000.0001) >  GMwxFile= '/nobackup1/stephdut/ECCO_Iter3.73daily/DGMkwx/DGMkwx',
(PID.TID 0000.0001) >  GMwyFile= '/nobackup1/stephdut/ECCO_Iter3.73daily/DGMkwy/DGMkwy',
(PID.TID 0000.0001) >  GMwzFile= '/nobackup1/stephdut/ECCO_Iter3.73daily/DGMkwz/DGMkwz',
(PID.TID 0000.0001) ># ConvFile= 'input_off/Convtave',
(PID.TID 0000.0001) >  SaltFile= '/nobackup1/stephdut/ECCO_Iter3.73daily/DDsalt/DDsalt',
(PID.TID 0000.0001) >  ThetFile= '/nobackup1/stephdut/ECCO_Iter3.73daily/DDtheta/DDtheta',
(PID.TID 0000.0001) >  SFluxFile='/nobackup1/stephdut/ECCO_Iter3.73daily/DFOSflux/DFOSflux',
(PID.TID 0000.0001) ># HFluxFile=' ',
(PID.TID 0000.0001) >  KPP_DiffSFile='/nobackup1/stephdut/ECCO_Iter3.73daily/DKPPdiffs/DKPPdiffs',
(PID.TID 0000.0001) >  KPP_ghatKFile='/nobackup1/stephdut/ECCO_Iter3.73daily/DKPPghatK/DKPPghatK',
(PID.TID 0000.0001) >### offGen2DFile='/nobackup1/stephdut/ECCO_Iter3.73daily/SIarea/SIarea',
(PID.TID 0000.0001) > &end
(PID.TID 0000.0001) >
(PID.TID 0000.0001) > &OFFLINE_PARM02
(PID.TID 0000.0001) >  offlineIter0=78912,
(PID.TID 0000.0001) >  deltaToffline=3600.,
(PID.TID 0000.0001) >  offlineForcingPeriod=86400.,
(PID.TID 0000.0001) >  offlineForcingCycle=31104000.,
(PID.TID 0000.0001) > &end
(PID.TID 0000.0001) >
(PID.TID 0000.0001) 
(PID.TID 0000.0001)  OFFLINE_READPARMS: finished reading data.off
(PID.TID 0000.0001)  PTRACERS_READPARMS: opening data.ptracers
(PID.TID 0000.0001)  OPEN_COPY_DATA_FILE: opening file data.ptracers
(PID.TID 0000.0001) // =======================================================
(PID.TID 0000.0001) // Parameter file "data.ptracers"
(PID.TID 0000.0001) // =======================================================
(PID.TID 0000.0001) > &PTRACERS_PARM01
(PID.TID 0000.0001) > PTRACERS_numInUse=33,
(PID.TID 0000.0001) > PTRACERS_Iter0= 0,
(PID.TID 0000.0001) >#
(PID.TID 0000.0001) > PTRACERS_advScheme=33*33,
(PID.TID 0000.0001) > PTRACERS_diffKh=33*0.E3,
(PID.TID 0000.0001) > PTRACERS_diffKr=33*1.E-5,
(PID.TID 0000.0001) > PTRACERS_useGMRedi=33*.TRUE.,
(PID.TID 0000.0001) > PTRACERS_useKPP=33*.TRUE.,
(PID.TID 0000.0001) >#
(PID.TID 0000.0001) > PTRACERS_names(1)= 'DIC',
(PID.TID 0000.0001) > PTRACERS_names(2)= 'NH4',
(PID.TID 0000.0001) > PTRACERS_names(3)= 'NO2',
(PID.TID 0000.0001) > PTRACERS_names(4)= 'NO3',
(PID.TID 0000.0001) > PTRACERS_names(5)= 'PO4',
(PID.TID 0000.0001) > PTRACERS_names(6)= 'SiO2',
(PID.TID 0000.0001) > PTRACERS_names(7)= 'FeT',
(PID.TID 0000.0001) > PTRACERS_names(8)= 'DOC',
(PID.TID 0000.0001) > PTRACERS_names(9)= 'DON',
(PID.TID 0000.0001) > PTRACERS_names(10)= 'DOP',
(PID.TID 0000.0001) > PTRACERS_names(11)= 'DOFe',
(PID.TID 0000.0001) > PTRACERS_names(12)= 'POC',
(PID.TID 0000.0001) > PTRACERS_names(13)= 'PON',
(PID.TID 0000.0001) > PTRACERS_names(14)= 'POP',
(PID.TID 0000.0001) > PTRACERS_names(15)= 'POSi',
(PID.TID 0000.0001) > PTRACERS_names(16)= 'POFe',
(PID.TID 0000.0001) > PTRACERS_names(17)= 'PIC',
(PID.TID 0000.0001) > PTRACERS_names(18)= 'ALK',
(PID.TID 0000.0001) > PTRACERS_names(19)= 'O2',
(PID.TID 0000.0001) > PTRACERS_names(20)= 'c1',
(PID.TID 0000.0001) > PTRACERS_names(21)= 'c2',
(PID.TID 0000.0001) > PTRACERS_names(22)= 'c3',
(PID.TID 0000.0001) > PTRACERS_names(23)= 'c4',
(PID.TID 0000.0001) > PTRACERS_names(24)= 'c5',
(PID.TID 0000.0001) > PTRACERS_names(25)= 'c6',
(PID.TID 0000.0001) > PTRACERS_names(26)= 'c7',
(PID.TID 0000.0001) > PTRACERS_names(27)= 'c8',
(PID.TID 0000.0001) > PTRACERS_names(28)= 'Chl1',
(PID.TID 0000.0001) > PTRACERS_names(29)= 'Chl2',
(PID.TID 0000.0001) > PTRACERS_names(30)= 'Chl3',
(PID.TID 0000.0001) > PTRACERS_names(31)= 'Chl4',
(PID.TID 0000.0001) > PTRACERS_names(32)= 'Chl5',
(PID.TID 0000.0001) > PTRACERS_names(33)= 'Chl6',
(PID.TID 0000.0001) > PTRACERS_units(1)='mmol C/m^3',
(PID.TID 0000.0001) > PTRACERS_units(2)='mmol N/m^3',
(PID.TID 0000.0001) > PTRACERS_units(3)='mmol N/m^3',
(PID.TID 0000.0001) > PTRACERS_units(4)='mmol N/m^3',
(PID.TID 0000.0001) > PTRACERS_units(5)='mmol P/m^3',
(PID.TID 0000.0001) > PTRACERS_units(6)='mmol Si/m^3',
(PID.TID 0000.0001) > PTRACERS_units(7)='mmol Fe/m^3',
(PID.TID 0000.0001) > PTRACERS_units(8)='mmol C/m^3',
(PID.TID 0000.0001) > PTRACERS_units(9)='mmol N/m^3',
(PID.TID 0000.0001) > PTRACERS_units(10)='mmol P/m^3',
(PID.TID 0000.0001) > PTRACERS_units(11)='mmol Fe/m^3',
(PID.TID 0000.0001) > PTRACERS_units(12)='mmol C/m^3',
(PID.TID 0000.0001) > PTRACERS_units(13)='mmol N/m^3',
(PID.TID 0000.0001) > PTRACERS_units(14)='mmol P/m^3',
(PID.TID 0000.0001) > PTRACERS_units(15)='mmol Si/m^3',
(PID.TID 0000.0001) > PTRACERS_units(16)='mmol Fe/m^3',
(PID.TID 0000.0001) > PTRACERS_units(17)='mmol C/m^3',
(PID.TID 0000.0001) > PTRACERS_units(18)='mmol eq/m^3',
(PID.TID 0000.0001) > PTRACERS_units(19)='mmol O/m^3',
(PID.TID 0000.0001) > PTRACERS_units(20)='mmol C/m^3',
(PID.TID 0000.0001) > PTRACERS_units(21)='mmol C/m^3',
(PID.TID 0000.0001) > PTRACERS_units(22)='mmol C/m^3',
(PID.TID 0000.0001) > PTRACERS_units(23)='mmol C/m^3',
(PID.TID 0000.0001) > PTRACERS_units(24)='mmol C/m^3',
(PID.TID 0000.0001) > PTRACERS_units(25)='mmol C/m^3',
(PID.TID 0000.0001) > PTRACERS_units(26)='mmol C/m^3',
(PID.TID 0000.0001) > PTRACERS_units(27)='mmol C/m^3',
(PID.TID 0000.0001) > PTRACERS_units(28)='mg/m^3',
(PID.TID 0000.0001) > PTRACERS_units(29)='mg/m^3',
(PID.TID 0000.0001) > PTRACERS_units(30)='mg/m^3',
(PID.TID 0000.0001) > PTRACERS_units(31)='mg/m^3',
(PID.TID 0000.0001) > PTRACERS_units(32)='mg/m^3',
(PID.TID 0000.0001) > PTRACERS_units(33)='mg/m^3',
(PID.TID 0000.0001) > PTRACERS_initialFile(1)='/home/stephdut/Input/input_ecco/glodap_tco2_ann-3d.bin',
(PID.TID 0000.0001) > PTRACERS_initialFile(2)='/home/stephdut/Input/DARWIN_ECCO_run17/nh4_y2000.data',
(PID.TID 0000.0001) > PTRACERS_initialFile(3)='/home/stephdut/Input/DARWIN_ECCO_run17/no2_y2000.data',
(PID.TID 0000.0001) > PTRACERS_initialFile(4)='/home/stephdut/Input/input_ecco/lev01_nitrate_ann-3d.bin',
(PID.TID 0000.0001) > PTRACERS_initialFile(5)='/home/stephdut/Input/input_ecco/lev01_phosphate_ann-3d.bin',
(PID.TID 0000.0001) > PTRACERS_initialFile(6)='/home/stephdut/Input/input_ecco/lev01_silicate_ann-3d.bin ',
(PID.TID 0000.0001) > PTRACERS_initialFile(7)='/home/stephdut/Input/DARWIN_ECCO_run17/fet_y2000.data',
(PID.TID 0000.0001) > PTRACERS_initialFile(8)='/home/stephdut/Input/DARWIN_ECCO_run17/doc_y2000.data',
(PID.TID 0000.0001) > PTRACERS_initialFile(9)='/home/stephdut/Input/DARWIN_ECCO_run17/don_y2000.data',
(PID.TID 0000.0001) > PTRACERS_initialFile(10)='/home/stephdut/Input/DARWIN_ECCO_run17/dop_y2000.data',
(PID.TID 0000.0001) > PTRACERS_initialFile(11)='/home/stephdut/Input/DARWIN_ECCO_run17/dofe_y2000.data',
(PID.TID 0000.0001) > PTRACERS_initialFile(12)='/home/stephdut/Input/DARWIN_ECCO_run17/poc_y2000.data',
(PID.TID 0000.0001) > PTRACERS_initialFile(13)='/home/stephdut/Input/DARWIN_ECCO_run17/pon_y2000.data',
(PID.TID 0000.0001) > PTRACERS_initialFile(14)='/home/stephdut/Input/DARWIN_ECCO_run17/pop_y2000.data',
(PID.TID 0000.0001) > PTRACERS_initialFile(15)='/home/stephdut/Input/DARWIN_ECCO_run17/posi_y2000.data',
(PID.TID 0000.0001) > PTRACERS_initialFile(16)='/home/stephdut/Input/DARWIN_ECCO_run17/pofe_y2000.data',
(PID.TID 0000.0001) > PTRACERS_initialFile(17)='/home/stephdut/Input/DARWIN_ECCO_run17/pic_y2000.data',
(PID.TID 0000.0001) > PTRACERS_initialFile(18)='/home/stephdut/Input/input_ecco/glodap_alk_ann-3d.bin',
(PID.TID 0000.0001) > PTRACERS_initialFile(19)='/home/stephdut/Input/input_ecco/lev01_oxygen_micromolar_ann-3d.bin',
(PID.TID 0000.0001) > PTRACERS_initialFile(20)='/home/stephdut/Input/DARWIN_ECCO_run17/phy_6species_y2000.data',
(PID.TID 0000.0001) > PTRACERS_initialFile(21)='/home/stephdut/Input/DARWIN_ECCO_run17/phy_6species_y2000.data',
(PID.TID 0000.0001) > PTRACERS_initialFile(22)='/home/stephdut/Input/DARWIN_ECCO_run17/phy_6species_y2000.data',
(PID.TID 0000.0001) > PTRACERS_initialFile(23)='/home/stephdut/Input/DARWIN_ECCO_run17/phy_6species_y2000.data',
(PID.TID 0000.0001) > PTRACERS_initialFile(24)='/home/stephdut/Input/DARWIN_ECCO_run17/phy_6species_y2000.data',
(PID.TID 0000.0001) > PTRACERS_initialFile(25)='/home/stephdut/Input/DARWIN_ECCO_run17/phy_6species_y2000.data',
(PID.TID 0000.0001) > PTRACERS_initialFile(26)='/home/stephdut/Input/DARWIN_ECCO_run17/zoop_y2000.data',
(PID.TID 0000.0001) > PTRACERS_initialFile(27)='/home/stephdut/Input/DARWIN_ECCO_run17/zoop_y2000.data',
(PID.TID 0000.0001) > PTRACERS_initialFile(28)=' ',
(PID.TID 0000.0001) > PTRACERS_initialFile(29)=' ',
(PID.TID 0000.0001) > PTRACERS_initialFile(30)=' ',
(PID.TID 0000.0001) > PTRACERS_initialFile(31)=' ',
(PID.TID 0000.0001) > PTRACERS_initialFile(32)=' ',
(PID.TID 0000.0001) > PTRACERS_initialFile(33)=' ',
(PID.TID 0000.0001) > /
(PID.TID 0000.0001) 
(PID.TID 0000.0001)  PTRACERS_READPARMS: finished reading data.ptracers
(PID.TID 0000.0001)  GCHEM_READPARMS: opening data.gchem
(PID.TID 0000.0001)  OPEN_COPY_DATA_FILE: opening file data.gchem
(PID.TID 0000.0001) // =======================================================
(PID.TID 0000.0001) // Parameter file "data.gchem"
(PID.TID 0000.0001) // =======================================================
(PID.TID 0000.0001) > &GCHEM_PARM01
(PID.TID 0000.0001) >  useDARWIN=.TRUE.,
(PID.TID 0000.0001) >  nsubtime=1,
(PID.TID 0000.0001) > /
(PID.TID 0000.0001) 
(PID.TID 0000.0001)  GCHEM_READPARMS: finished reading data.gchem
(PID.TID 0000.0001)  DARWIN_READPARMS: opening data.darwin
(PID.TID 0000.0001)  OPEN_COPY_DATA_FILE: opening file data.darwin
(PID.TID 0000.0001) // =======================================================
(PID.TID 0000.0001) // Parameter file "data.darwin"
(PID.TID 0000.0001) // =======================================================
(PID.TID 0000.0001) >########################
(PID.TID 0000.0001) > &DARWIN_FORCING_PARAMS
(PID.TID 0000.0001) > darwin_chlInitBalanced= T,
(PID.TID 0000.0001) > /
(PID.TID 0000.0001) >########################
(PID.TID 0000.0001) > &DARWIN_EXF_PARAMS
(PID.TID 0000.0001) > ironFile='/home/stephdut/Input/input_ecco/mahowald2009_solubile_current_smooth_oce_mth-2d.bin',
(PID.TID 0000.0001) > ironPeriod= -12.,
(PID.TID 0000.0001) > darwin_inscal_iron= 1000.,
(PID.TID 0000.0001) > PARFile='/home/stephdut/Input/input_ecco/ecco_oasim_total_below_oneband_einm2d.bin',
(PID.TID 0000.0001) > PARPeriod= -12.,
(PID.TID 0000.0001) > darwin_inscal_PAR= 11.574074074074,
(PID.TID 0000.0001) > windFile='../input/input/tren_speed_mth-2d.bin',
(PID.TID 0000.0001) > windPeriod= -12.,
(PID.TID 0000.0001) > icefile = '../input/input/SIarea',
(PID.TID 0000.0001) > icestartdate1 = 19990101,
(PID.TID 0000.0001) > icestartdate2 = 120000,
(PID.TID 0000.0001) > iceperiod     = 86400.0,
(PID.TID 0000.0001) > /
(PID.TID 0000.0001) >########################
(PID.TID 0000.0001) > &DARWIN_PARAMS
(PID.TID 0000.0001) > darwin_allometric= F,
(PID.TID 0000.0001) > darwin_seed= 56,
(PID.TID 0000.0001) > darwin_read_phos= T,
(PID.TID 0000.0001) > tempCoeffArr= 0.8,
(PID.TID 0000.0001) > PARmin= 0.1,
(PID.TID 0000.0001) > alpfe= 1.0,
(PID.TID 0000.0001) > freefemax = .1E-3,
(PID.TID 0000.0001) > depthfesed= 7000.,
(PID.TID 0000.0001) > scav_rat= 1.73611111111111111111E-7,
(PID.TID 0000.0001) > kdoc=  3.8580246913580247E-7,  ! 1/30day
(PID.TID 0000.0001) > kdop=  3.8580246913580247E-7,  ! 1/30day
(PID.TID 0000.0001) > kdon=  3.8580246913580247E-7,  ! 1/30day
(PID.TID 0000.0001) > kdofe= 3.8580246913580247E-7,  ! 1/30day
(PID.TID 0000.0001) > kPOC=  3.8580246913580247E-7,  ! 1/30day
(PID.TID 0000.0001) > kPOP=  3.8580246913580247E-7,  ! 1/30day
(PID.TID 0000.0001) > kPON=  3.8580246913580247E-7,  ! 1/30day
(PID.TID 0000.0001) > kPOFe= 3.8580246913580247E-7,  ! 1/30day
(PID.TID 0000.0001) > kPOSi= 7.7160493827160493E-8,  ! 1/150day
(PID.TID 0000.0001) > phygrazmin= 120E-10,
(PID.TID 0000.0001) > darwin_atmos_pCO2= 278E-6,
(PID.TID 0000.0001) > /
(PID.TID 0000.0001) >########################
(PID.TID 0000.0001) > &DARWIN_RADTRANS_PARAMS
(PID.TID 0000.0001) > /
(PID.TID 0000.0001) >########################
(PID.TID 0000.0001) > &DARWIN_TRAIT_PARAMS
(PID.TID 0000.0001) >#
(PID.TID 0000.0001) > diaz_growfac=  4.0,
(PID.TID 0000.0001) > cocco_growfac=  1.2,
(PID.TID 0000.0001) > diatom_growfac=  0.95,
(PID.TID 0000.0001) > smallmort=  7.0,
(PID.TID 0000.0001) > bigmort=  7.0,
(PID.TID 0000.0001) > zoomortsmall= 2.3148148148148148e-07,  ! 1/50days
(PID.TID 0000.0001) > zoomortbig=   2.3148148148148148e-07,  ! 1/50days
(PID.TID 0000.0001) > zoomortsmall2= 9.259259259259258e-07,  ! 16*.6/120/day
(PID.TID 0000.0001) > zoomortbig2=   9.259259259259258e-07,  ! 16*.6/120/day
(PID.TID 0000.0001) > smallexport= 0.1,
(PID.TID 0000.0001) > bigexport= 0.4,
(PID.TID 0000.0001) > tempcoeff2_small= 0.0003,
(PID.TID 0000.0001) > tempcoeff2_big= 0.0003,
(PID.TID 0000.0001) >#
(PID.TID 0000.0001) > val_R_FeC_diaz=   3.3333333333333333E-5,
(PID.TID 0000.0001) > val_R_NC_diaz=    0.33333333333333333,
(PID.TID 0000.0001) > val_R_SiC_diatom= 0.13333333333333333,
(PID.TID 0000.0001) > val_R_PICPOC= 0.8,
(PID.TID 0000.0001) >#
(PID.TID 0000.0001) > smallpsat= 0.012,
(PID.TID 0000.0001) > bigpsat=   0.035,
(PID.TID 0000.0001) > procpsat=  0.011,
(PID.TID 0000.0001) > unidzpsat= 0.012,
(PID.TID 0000.0001) > coccopsat= 0.028,
(PID.TID 0000.0001) > smallpsatrange=  0.,
(PID.TID 0000.0001) > bigpsatrange=  0.,
(PID.TID 0000.0001) > procpsatrange=  0.,
(PID.TID 0000.0001) > unidzpsatrange=  0.,
(PID.TID 0000.0001) > coccopsatrange= 0.,
(PID.TID 0000.0001) >#
(PID.TID 0000.0001) > smallmqyield=  5E-5,
(PID.TID 0000.0001) > smallmqyieldrange=  0.,
(PID.TID 0000.0001) > bigmqyield=  3.E-5,
(PID.TID 0000.0001) > bigmqyieldrange=  0.,
(PID.TID 0000.0001) > smallchl2cmax= 0.2,
(PID.TID 0000.0001) > smallchl2cmaxrange= 0.,
(PID.TID 0000.0001) > bigchl2cmax= 0.5,
(PID.TID 0000.0001) > bigchl2cmaxrange= 0.,
(PID.TID 0000.0001) >#
(PID.TID 0000.0001) > val_acclimtimescl=  5.7870370370370370E-6,
(PID.TID 0000.0001) >#
(PID.TID 0000.0001) > zooexfacsmall= 0.2,
(PID.TID 0000.0001) > zooexfacbig= 0.6,
(PID.TID 0000.0001) >#
(PID.TID 0000.0001) > grazeefflow= 0.4,
(PID.TID 0000.0001) > grazeeffmod= 0.8,
(PID.TID 0000.0001) > grazeeffhi= 0.9,
(PID.TID 0000.0001) > diatomgraz= 0.86,
(PID.TID 0000.0001) > coccograz= 0.8,
(PID.TID 0000.0001) > olargegraz=  0.9,
(PID.TID 0000.0001) >#
(PID.TID 0000.0001) > kgrazesat_val=  6.,
(PID.TID 0000.0001) > /
(PID.TID 0000.0001) > &DARWIN_ALLOMETRIC_PARAMS
(PID.TID 0000.0001) > /
(PID.TID 0000.0001) 
(PID.TID 0000.0001)  ===================================
(PID.TID 0000.0001)  OFFLINE_RESET_PARMS: => turn off Temp,Salt & Mom_Stepping flags
(PID.TID 0000.0001)  OFFLINE_RESET_PARMS: => reset monitorFreq to:  4.3200000000E+04
(PID.TID 0000.0001) SET_PARMS: done
(PID.TID 0000.0001) Enter INI_VERTICAL_GRID: setInterFDr=    T ; setCenterDr=    F
(PID.TID 0000.0001) %MON XC_max                       =   3.5950000000000000E+02
(PID.TID 0000.0001) %MON XC_min                       =   5.0000000000000000E-01
(PID.TID 0000.0001) %MON XC_mean                      =   1.8000000000000000E+02
(PID.TID 0000.0001) %MON XC_sd                        =   1.0392264751567228E+02
(PID.TID 0000.0001) %MON XG_max                       =   3.5900000000000000E+02
(PID.TID 0000.0001) %MON XG_min                       =   0.0000000000000000E+00
(PID.TID 0000.0001) %MON XG_mean                      =   1.7950000000000000E+02
(PID.TID 0000.0001) %MON XG_sd                        =   1.0392264751567228E+02
(PID.TID 0000.0001) %MON DXC_max                      =   1.1117324005452037E+05
(PID.TID 0000.0001) %MON DXC_min                      =   2.0260485279198008E+04
(PID.TID 0000.0001) %MON DXC_mean                     =   7.8416312620424709E+04
(PID.TID 0000.0001) %MON DXC_sd                       =   2.8072575688352925E+04
(PID.TID 0000.0001) %MON DXF_max                      =   1.1117324005452037E+05
(PID.TID 0000.0001) %MON DXF_min                      =   2.0260485279198008E+04
(PID.TID 0000.0001) %MON DXF_mean                     =   7.8416312620424709E+04
(PID.TID 0000.0001) %MON DXF_sd                       =   2.8072575688352925E+04
(PID.TID 0000.0001) %MON DXG_max                      =   1.1117747335203880E+05
(PID.TID 0000.0001) %MON DXG_min                      =   1.9305765645195253E+04
(PID.TID 0000.0001) %MON DXG_mean                     =   7.8413326767520935E+04
(PID.TID 0000.0001) %MON DXG_sd                       =   2.8078861897602375E+04
(PID.TID 0000.0001) %MON DXV_max                      =   1.1117747335203880E+05
(PID.TID 0000.0001) %MON DXV_min                      =   1.9305765645195253E+04
(PID.TID 0000.0001) %MON DXV_mean                     =   7.8413326767520935E+04
(PID.TID 0000.0001) %MON DXV_sd                       =   2.8078861897602375E+04
(PID.TID 0000.0001) %MON YC_max                       =   7.9500000000000000E+01
(PID.TID 0000.0001) %MON YC_min                       =  -7.9500000000000000E+01
(PID.TID 0000.0001) %MON YC_mean                      =   0.0000000000000000E+00
(PID.TID 0000.0001) %MON YC_sd                        =   4.6187119416564613E+01
(PID.TID 0000.0001) %MON YG_max                       =   7.9000000000000000E+01
(PID.TID 0000.0001) %MON YG_min                       =  -8.0000000000000000E+01
(PID.TID 0000.0001) %MON YG_mean                      =  -5.0000000000000000E-01
(PID.TID 0000.0001) %MON YG_sd                        =   4.6187119416564613E+01
(PID.TID 0000.0001) %MON DYC_max                      =   1.1117747335203880E+05
(PID.TID 0000.0001) %MON DYC_min                      =   1.1117747335203880E+05
(PID.TID 0000.0001) %MON DYC_mean                     =   1.1117747335204249E+05
(PID.TID 0000.0001) %MON DYC_sd                       =   3.6961864680051804E-09
(PID.TID 0000.0001) %MON DYF_max                      =   1.1117747335203880E+05
(PID.TID 0000.0001) %MON DYF_min                      =   1.1117747335203880E+05
(PID.TID 0000.0001) %MON DYF_mean                     =   1.1117747335204249E+05
(PID.TID 0000.0001) %MON DYF_sd                       =   3.6961864680051804E-09
(PID.TID 0000.0001) %MON DYG_max                      =   1.1117747335203880E+05
(PID.TID 0000.0001) %MON DYG_min                      =   1.1117747335203880E+05
(PID.TID 0000.0001) %MON DYG_mean                     =   1.1117747335204249E+05
(PID.TID 0000.0001) %MON DYG_sd                       =   3.6961864680051804E-09
(PID.TID 0000.0001) %MON DYU_max                      =   1.1117747335203880E+05
(PID.TID 0000.0001) %MON DYU_min                      =   1.1117747335203880E+05
(PID.TID 0000.0001) %MON DYU_mean                     =   1.1117747335204249E+05
(PID.TID 0000.0001) %MON DYU_sd                       =   3.6961864680051804E-09
(PID.TID 0000.0001) %MON RA_max                       =   1.2359803056755941E+10
(PID.TID 0000.0001) %MON RA_min                       =   2.2524809726007752E+09
(PID.TID 0000.0001) %MON RA_mean                      =   8.7180168532477016E+09
(PID.TID 0000.0001) %MON RA_sd                        =   3.1209984222260637E+09
(PID.TID 0000.0001) %MON RAW_max                      =   1.2359803056755941E+10
(PID.TID 0000.0001) %MON RAW_min                      =   2.2524809726007752E+09
(PID.TID 0000.0001) %MON RAW_mean                     =   8.7180168532477016E+09
(PID.TID 0000.0001) %MON RAW_sd                       =   3.1209984222260637E+09
(PID.TID 0000.0001) %MON RAS_max                      =   1.2360273698104368E+10
(PID.TID 0000.0001) %MON RAS_min                      =   2.1463390031403122E+09
(PID.TID 0000.0001) %MON RAS_mean                     =   8.7176848978793430E+09
(PID.TID 0000.0001) %MON RAS_sd                       =   3.1216972982168884E+09
(PID.TID 0000.0001) %MON RAZ_max                      =   1.2360273698104368E+10
(PID.TID 0000.0001) %MON RAZ_min                      =   2.1463390031403122E+09
(PID.TID 0000.0001) %MON RAZ_mean                     =   8.7176848978793430E+09
(PID.TID 0000.0001) %MON RAZ_sd                       =   3.1216972982168884E+09
(PID.TID 0000.0001) %MON AngleCS_max                  =   1.0000000000000000E+00
(PID.TID 0000.0001) %MON AngleCS_min                  =   1.0000000000000000E+00
(PID.TID 0000.0001) %MON AngleCS_mean                 =   1.0000000000000000E+00
(PID.TID 0000.0001) %MON AngleCS_sd                   =   0.0000000000000000E+00
(PID.TID 0000.0001) %MON AngleSN_max                  =   0.0000000000000000E+00
(PID.TID 0000.0001) %MON AngleSN_min                  =   0.0000000000000000E+00
(PID.TID 0000.0001) %MON AngleSN_mean                 =   0.0000000000000000E+00
(PID.TID 0000.0001) %MON AngleSN_sd                   =   0.0000000000000000E+00
(PID.TID 0000.0001)  MDS_READ_FIELD: opening global file: ../input/input/bathy_fl.bin
(PID.TID 0000.0001) // =======================================================
(PID.TID 0000.0001) // Field Model R_low (ini_masks_etc)
(PID.TID 0000.0001) // CMIN =         -5.700000000000000E+03
(PID.TID 0000.0001) // CMAX =         -3.500000000000000E+01
(PID.TID 0000.0001) // CINT =          2.098148148148148E+02
(PID.TID 0000.0001) // SYMBOLS (CMIN->CMAX): -abcdefghijklmnopqrstuvwxyz+
(PID.TID 0000.0001) //                  0.0: .
(PID.TID 0000.0001) // RANGE I (Lo:Hi:Step):(    -3:    49:     1)
(PID.TID 0000.0001) // RANGE J (Lo:Hi:Step):(    44:    -3:    -1)
(PID.TID 0000.0001) // RANGE K (Lo:Hi:Step):(   1:   1:   1)
(PID.TID 0000.0001) // =======================================================
(PID.TID 0000.0001) K =   1
(PID.TID 0000.0001) //                I=6       I=16      I=26      I=36      I=46
(PID.TID 0000.0001) // |--J--|321012345|789012345|789012345|789012345|789012345|789
(PID.TID 0000.0001) //     44 geebbbbbbbbebbbbbeeeegjnzzqgegjgeeeggjjb-bbbeeejnljjj
(PID.TID 0000.0001) //     43 ggebbbbbbbebbbbbbbeeeeeeggbbelllgggggjgbbbbeeggnljlln
(PID.TID 0000.0001) //     42 eeebbbbbbbbbbbbbbeeeeeeebbbbglnlgggggjebbbbeggjnlllqq
(PID.TID 0000.0001) //     41 eeebbbbbbbbbbbebeeeeeeeebbbbjnnlgggjggbbbbeejjnnlnnnl
(PID.TID 0000.0001) //     40 ggeeeeeebbbbbeeeeeqeeebbbbbelnnnjgeegebeeggjjnqnnnlll
(PID.TID 0000.0001) //     39 ggjlnjeeeeeeeeeeggeebbbbbbbglnllgebbbbeegjjlnqqnlllll
(PID.TID 0000.0001) //     38 ggjnljjeeeeeegjgeeeebbbbbbegggeeebbbbeeggjlnnqlllllll
(PID.TID 0000.0001) //     37 ggjgggggeegjgggeeeeeeeeebeeebbbbbbbbeeggllnqqqnnnnnnn
(PID.TID 0000.0001) //     36 jjgggeegjgggeeeeeeeeeeeegeebbbb---beegjlqqqqqqqqssqnn
(PID.TID 0000.0001) //     35 jjjgggeeggggeeeeeeeeeeegeeebbb---bbegjnnqqqqqssssssqn
(PID.TID 0000.0001) //     34 gggjggeeegjnjeeeeeeeee-beeebbb--bbegjnlllnnnllqnnqqnl
(PID.TID 0000.0001) //     33 jggjgggeeggqljgeeeeeeebbebeebbbbbbggnljjjjggjjjjjjllj
(PID.TID 0000.0001) //     32 jjjjjjggjjjljjggggeegeeeeeeeebbbbegjjgjgggggggggggggg
(PID.TID 0000.0001) //     31 llljjjjjjjlnggjjgggeggggggggeeeeeggjgeeeeeggggggggggg
(PID.TID 0000.0001) //     30 nnnnlllnlljjggjjjljjjjjjggggeegeggeebebbeggjjjjggggge
(PID.TID 0000.0001) //     29 nnnnqnlnjjjjgjjlnlllllljjjjggggjgeebbbeeegglllnnljjge
(PID.TID 0000.0001) //     28 qqqnnnnlljjjjllnllnllnnnllllljjjeeb-bbbeegglnqnqnlljg
(PID.TID 0000.0001) //     27 qqqnnnnnnnnnlljljjggjjlllllllegeebbbbbbeegjnnnllsnllq
(PID.TID 0000.0001) //     26 nnqqqnqsqnnlljjggeeeggjjjjjjggeebb-bbbbeegjllljjgggee
(PID.TID 0000.0001) //     25 lllljjllllljgegebbbbeeeggjjjebeb---bbbbbbegjgggeeeeeb
(PID.TID 0000.0001) //     24 ljjjjggjggeeebbbbbbbbbeegejjebbbbbb-bbbbbbbbbeeeebbbb
(PID.TID 0000.0001) //     23 jjjgggggeeeebbb----bbbbeeebebbbbbbb-bbbbbbbbbbbbbbbbb
(PID.TID 0000.0001) //     22 eeeggeebbbbbebbb--bbbbbbbbbbbbbbbbbbbbbbbbbbbbbbbbbbb
(PID.TID 0000.0001) //     21 bbbbbbbbbbbbbbbbbbbbbbbbbbbbbbbbbbbbbbbbbbbbbbbbbbbbb
(PID.TID 0000.0001) //     20 bbbbbbbbbbbbbbbbbbbbbbbbbbbbbbbbbbbbbbbbbbbbbbbbbbbbb
(PID.TID 0000.0001) //     19 bbbbbbbbbbbbbbbebbbbbbbbbbbbbbbbbbbbbbbbbbbbbbbbbbbbb
(PID.TID 0000.0001) //     18 bbbbbbbbbbbbbbbbbbbbbbbbbbbbbbbbbbbbbbbbbbbbbbbbeeeeb
(PID.TID 0000.0001) //     17 bbbbbbeeeeebbbbbbbbbbbbbbbbbbbbbbbbbbbbbbbbeeeeeeegge
(PID.TID 0000.0001) //     16 bbbbgnqnnjeeebbeeeeeebbbbbbbbbbbbbbeegeeeeeeeggggjjlj
(PID.TID 0000.0001) //     15 eebglnnljggggggjllljgeeeeeeeeeeeeeegjnngeeeeeggjjllnq
(PID.TID 0000.0001) //     14 eeeejgjjgggggjjllljggeeeeeeeeeeegggglulggeeggglnnqsxy
(PID.TID 0000.0001) //     13 ggeeeegjggggjlnqlljgggggggggggjjjjjnvvnlljjlnnuyyy...
(PID.TID 0000.0001) //     12 jggggggjllllllnsqnllljjjjjjjjjjjlnsyz..yxxyyy........
(PID.TID 0000.0001) //     11 nlnqsqqqqqsssquzzyxyxvssssnlnnquvx++......++.........
(PID.TID 0000.0001) //     10 z+zyz+..z++...++..........yy.........................
(PID.TID 0000.0001) //      9 .....................................................
(PID.TID 0000.0001) //      8 .....................................................
(PID.TID 0000.0001) //      7 .....................................................
(PID.TID 0000.0001) //      6 .....................................................
(PID.TID 0000.0001) //      5 .....................................................
(PID.TID 0000.0001) //      4 .....................................................
(PID.TID 0000.0001) //      3 .....................................................
(PID.TID 0000.0001) //      2 .....................................................
(PID.TID 0000.0001) //      1 .....................................................
(PID.TID 0000.0001) //      0 sqnnnlllnquvyz+......................................
(PID.TID 0000.0001) //     -1 snnnnnnnqqqquyz......................................
(PID.TID 0000.0001) //     -2 qnllllllnnqqnsxzzz...................................
(PID.TID 0000.0001) //     -3 ljlllllllnqnnqqsuxz+.................................
(PID.TID 0000.0001) // =======================================================
(PID.TID 0000.0001) // END OF FIELD                                          =
(PID.TID 0000.0001) // =======================================================
(PID.TID 0000.0001) 
(PID.TID 0000.0001) // =======================================================
(PID.TID 0000.0001) // Field Model Ro_surf (ini_masks_etc)
(PID.TID 0000.0001) // CMIN =          1.000000000000000E+32
(PID.TID 0000.0001) // CMAX =         -1.000000000000000E+32
(PID.TID 0000.0001) // CINT =          0.000000000000000E+00
(PID.TID 0000.0001) // SYMBOLS (CMIN->CMAX): -abcdefghijklmnopqrstuvwxyz+
(PID.TID 0000.0001) //                  0.0: .
(PID.TID 0000.0001) // RANGE I (Lo:Hi:Step):(    -3:    49:     1)
(PID.TID 0000.0001) // RANGE J (Lo:Hi:Step):(    44:    -3:    -1)
(PID.TID 0000.0001) // RANGE K (Lo:Hi:Step):(   1:   1:   1)
(PID.TID 0000.0001) // =======================================================
(PID.TID 0000.0001) // =======================================================
(PID.TID 0000.0001) // END OF FIELD                                          =
(PID.TID 0000.0001) // =======================================================
(PID.TID 0000.0001) 
(PID.TID 0000.0001) // =======================================================
(PID.TID 0000.0001) // Field hFacC at iteration          0
(PID.TID 0000.0001) // CMIN =          1.000000000000000E+00
(PID.TID 0000.0001) // CMAX =          1.000000000000000E+00
(PID.TID 0000.0001) // CINT =          0.000000000000000E+00
(PID.TID 0000.0001) // SYMBOLS (CMIN->CMAX): -abcdefghijklmnopqrstuvwxyz+
(PID.TID 0000.0001) //                  0.0: .
(PID.TID 0000.0001) // RANGE I (Lo:Hi:Step):(    -3:    49:     1)
(PID.TID 0000.0001) // RANGE J (Lo:Hi:Step):(    44:    -3:    -1)
(PID.TID 0000.0001) // RANGE K (Lo:Hi:Step):(   1:   1:   1)
(PID.TID 0000.0001) // =======================================================
(PID.TID 0000.0001) // =======================================================
(PID.TID 0000.0001) // END OF FIELD                                          =
(PID.TID 0000.0001) // =======================================================
(PID.TID 0000.0001) 
(PID.TID 0000.0001) // =======================================================
(PID.TID 0000.0001) // Field hFacW at iteration          0
(PID.TID 0000.0001) // CMIN =          1.000000000000000E+00
(PID.TID 0000.0001) // CMAX =          1.000000000000000E+00
(PID.TID 0000.0001) // CINT =          0.000000000000000E+00
(PID.TID 0000.0001) // SYMBOLS (CMIN->CMAX): -abcdefghijklmnopqrstuvwxyz+
(PID.TID 0000.0001) //                  0.0: .
(PID.TID 0000.0001) // RANGE I (Lo:Hi:Step):(    -3:    49:     1)
(PID.TID 0000.0001) // RANGE J (Lo:Hi:Step):(    44:    -3:    -1)
(PID.TID 0000.0001) // RANGE K (Lo:Hi:Step):(   1:   1:   1)
(PID.TID 0000.0001) // =======================================================
(PID.TID 0000.0001) // =======================================================
(PID.TID 0000.0001) // END OF FIELD                                          =
(PID.TID 0000.0001) // =======================================================
(PID.TID 0000.0001) 
(PID.TID 0000.0001) // =======================================================
(PID.TID 0000.0001) // Field hFacS at iteration          0
(PID.TID 0000.0001) // CMIN =          1.000000000000000E+00
(PID.TID 0000.0001) // CMAX =          1.000000000000000E+00
(PID.TID 0000.0001) // CINT =          0.000000000000000E+00
(PID.TID 0000.0001) // SYMBOLS (CMIN->CMAX): -abcdefghijklmnopqrstuvwxyz+
(PID.TID 0000.0001) //                  0.0: .
(PID.TID 0000.0001) // RANGE I (Lo:Hi:Step):(    -3:    49:     1)
(PID.TID 0000.0001) // RANGE J (Lo:Hi:Step):(    44:    -3:    -1)
(PID.TID 0000.0001) // RANGE K (Lo:Hi:Step):(   1:   1:   1)
(PID.TID 0000.0001) // =======================================================
(PID.TID 0000.0001) // =======================================================
(PID.TID 0000.0001) // END OF FIELD                                          =
(PID.TID 0000.0001) // =======================================================
(PID.TID 0000.0001) 
(PID.TID 0000.0001) 
(PID.TID 0000.0001) // =======================================================
(PID.TID 0000.0001) // Calendar configuration >>> START <<<
(PID.TID 0000.0001) // =======================================================
(PID.TID 0000.0001) 
(PID.TID 0000.0001) modelstart = /* Start time of the model integration [s] */
(PID.TID 0000.0001)                 0.000000000000000E+00
(PID.TID 0000.0001)     ;
(PID.TID 0000.0001) modelend  = /* End time of the model integration [s] */
(PID.TID 0000.0001)                 4.320000000000000E+04
(PID.TID 0000.0001)     ;
(PID.TID 0000.0001) modelstep = /* Time interval for a model forward step [s] */
(PID.TID 0000.0001)                 1.080000000000000E+04
(PID.TID 0000.0001)     ;
(PID.TID 0000.0001) usingGregorianCalendar= /* Calendar Type: Gregorian Calendar */
(PID.TID 0000.0001)                   F
(PID.TID 0000.0001)     ;
(PID.TID 0000.0001) usingJulianCalendar = /* Calendar Type: Julian Calendar */
(PID.TID 0000.0001)                   F
(PID.TID 0000.0001)     ;
(PID.TID 0000.0001) usingModelCalendar  = /* Calendar Type: Model Calendar */
(PID.TID 0000.0001)                   T
(PID.TID 0000.0001)     ;
(PID.TID 0000.0001) modelstartdate YYYYMMDD = /* Model start date YYYY-MM-DD */
(PID.TID 0000.0001)                20000101
(PID.TID 0000.0001)     ;
(PID.TID 0000.0001)   modelstartdate HHMMSS = /* Model start date HH-MM-SS  */
(PID.TID 0000.0001)                       0
(PID.TID 0000.0001)     ;
(PID.TID 0000.0001) modelenddate   YYYYMMDD = /* Model end date YYYY-MM-DD */
(PID.TID 0000.0001)                20000101
(PID.TID 0000.0001)     ;
(PID.TID 0000.0001)   modelenddate   HHMMSS = /* Model end date HH-MM-SS  */
(PID.TID 0000.0001)                  120000
(PID.TID 0000.0001)     ;
(PID.TID 0000.0001) intyears = /* Number of calendar years affected by the integration */
(PID.TID 0000.0001)                       1
(PID.TID 0000.0001)     ;
(PID.TID 0000.0001) intmonths= /* Number of calendar months affected by the integration */
(PID.TID 0000.0001)                       1
(PID.TID 0000.0001)     ;
(PID.TID 0000.0001) intdays = /* Number of calendar days affected by the integration */
(PID.TID 0000.0001)                       1
(PID.TID 0000.0001)     ;
(PID.TID 0000.0001) modeliter0 = /* Base timestep number  */
(PID.TID 0000.0001)                       0
(PID.TID 0000.0001)     ;
(PID.TID 0000.0001) modeliterend = /* Final timestep number  */
(PID.TID 0000.0001)                       4
(PID.TID 0000.0001)     ;
(PID.TID 0000.0001) modelintsteps= /* Number of model timesteps  */
(PID.TID 0000.0001)                       4
(PID.TID 0000.0001)     ;
(PID.TID 0000.0001) 
(PID.TID 0000.0001) // =======================================================
(PID.TID 0000.0001) // Calendar configuration  >>> END <<<
(PID.TID 0000.0001) // =======================================================
(PID.TID 0000.0001) 
(PID.TID 0000.0001) GAD_INIT_FIXED: GAD_OlMinSize=  0  0  1
(PID.TID 0000.0001) 
(PID.TID 0000.0001) // ===================================
(PID.TID 0000.0001) // GAD parameters :
(PID.TID 0000.0001) // ===================================
(PID.TID 0000.0001) tempAdvScheme =   /* Temp. Horiz.Advection scheme selector */
(PID.TID 0000.0001)                       3
(PID.TID 0000.0001)     ;
(PID.TID 0000.0001) tempVertAdvScheme =   /* Temp. Vert. Advection scheme selector */
(PID.TID 0000.0001)                       3
(PID.TID 0000.0001)     ;
(PID.TID 0000.0001) tempMultiDimAdvec =   /* use Muti-Dim Advec method for Temp */
(PID.TID 0000.0001)                   F
(PID.TID 0000.0001)     ;
(PID.TID 0000.0001) tempSOM_Advection = /* use 2nd Order Moment Advection for Temp */
(PID.TID 0000.0001)                   F
(PID.TID 0000.0001)     ;
(PID.TID 0000.0001) AdamsBashforthGt = /* apply Adams-Bashforth extrapolation on Gt */
(PID.TID 0000.0001)                   F
(PID.TID 0000.0001)     ;
(PID.TID 0000.0001) AdamsBashforth_T = /* apply Adams-Bashforth extrapolation on Temp */
(PID.TID 0000.0001)                   F
(PID.TID 0000.0001)     ;
(PID.TID 0000.0001) saltAdvScheme =   /* Salt. Horiz.advection scheme selector */
(PID.TID 0000.0001)                       3
(PID.TID 0000.0001)     ;
(PID.TID 0000.0001) saltVertAdvScheme =   /* Salt. Vert. Advection scheme selector */
(PID.TID 0000.0001)                       3
(PID.TID 0000.0001)     ;
(PID.TID 0000.0001) saltMultiDimAdvec =   /* use Muti-Dim Advec method for Salt */
(PID.TID 0000.0001)                   F
(PID.TID 0000.0001)     ;
(PID.TID 0000.0001) saltSOM_Advection = /* use 2nd Order Moment Advection for Salt */
(PID.TID 0000.0001)                   F
(PID.TID 0000.0001)     ;
(PID.TID 0000.0001) AdamsBashforthGs = /* apply Adams-Bashforth extrapolation on Gs */
(PID.TID 0000.0001)                   F
(PID.TID 0000.0001)     ;
(PID.TID 0000.0001) AdamsBashforth_S = /* apply Adams-Bashforth extrapolation on Salt */
(PID.TID 0000.0001)                   F
(PID.TID 0000.0001)     ;
(PID.TID 0000.0001) SmolarkiewiczMaxFrac = /* maximal fraction of tracer to flow out of a cell */
(PID.TID 0000.0001)                 1.000000000000000E+00
(PID.TID 0000.0001)     ;
(PID.TID 0000.0001) // ===================================
(PID.TID 0000.0001) 
(PID.TID 0000.0001) // =======================================================
(PID.TID 0000.0001) // External forcing (EXF) configuration >>> START <<<
(PID.TID 0000.0001) // =======================================================
(PID.TID 0000.0001) 
(PID.TID 0000.0001)  EXF general parameters:
(PID.TID 0000.0001) 
(PID.TID 0000.0001) exf_iprec = /* exf file precision */
(PID.TID 0000.0001)                      32
(PID.TID 0000.0001)     ;
(PID.TID 0000.0001) useExfYearlyFields = /* add extension _YEAR to input file names */
(PID.TID 0000.0001)                   T
(PID.TID 0000.0001)     ;
(PID.TID 0000.0001) twoDigitYear = /* use 2-digit year extension */
(PID.TID 0000.0001)                   T
(PID.TID 0000.0001)     ;
(PID.TID 0000.0001) exf_verbose = /* print more messages to STDOUT */
(PID.TID 0000.0001)                   F
(PID.TID 0000.0001)     ;
(PID.TID 0000.0001) useExfCheckRange = /* check for fields range */
(PID.TID 0000.0001)                   F
(PID.TID 0000.0001)     ;
(PID.TID 0000.0001) exf_monFreq = /* EXF monitor frequency [ s ] */
(PID.TID 0000.0001)                 1.000000000000000E+00
(PID.TID 0000.0001)     ;
(PID.TID 0000.0001) repeatPeriod = /* period for cycling forcing dataset [ s ] */
(PID.TID 0000.0001)                 0.000000000000000E+00
(PID.TID 0000.0001)     ;
(PID.TID 0000.0001) climTempFreeze= /* Minimum climatological temperature [deg.C] */
(PID.TID 0000.0001)                -1.900000000000000E+00
(PID.TID 0000.0001)     ;
(PID.TID 0000.0001) windStressMax = /* Maximum absolute windstress [ Pa ] */
(PID.TID 0000.0001)                 2.000000000000000E+00
(PID.TID 0000.0001)     ;
(PID.TID 0000.0001) stressIsOnCgrid = /* set u,v_stress on Arakawa C-grid */
(PID.TID 0000.0001)                   F
(PID.TID 0000.0001)     ;
(PID.TID 0000.0001) cen2kel = /* conversion of deg. Centigrade to Kelvin [K] */
(PID.TID 0000.0001)                 2.731500000000000E+02
(PID.TID 0000.0001)     ;
(PID.TID 0000.0001) gravity_mks= /* gravitational acceleration [m/s^2] */
(PID.TID 0000.0001)                 9.810000000000000E+00
(PID.TID 0000.0001)     ;
(PID.TID 0000.0001) atmrho =  /* mean atmospheric density [kg/m^3] */
(PID.TID 0000.0001)                 1.200000000000000E+00
(PID.TID 0000.0001)     ;
(PID.TID 0000.0001) atmcp =  /* mean atmospheric specific heat [J/kg/K] */
(PID.TID 0000.0001)                 1.005000000000000E+03
(PID.TID 0000.0001)     ;
(PID.TID 0000.0001) flamb =  /* latent heat of evaporation [J/kg] */
(PID.TID 0000.0001)                 2.500000000000000E+06
(PID.TID 0000.0001)     ;
(PID.TID 0000.0001) flami =  /* latent heat of pure-ice melting [J/kg] */
(PID.TID 0000.0001)                 3.340000000000000E+05
(PID.TID 0000.0001)     ;
(PID.TID 0000.0001) cvapor_fac = /* const. for Saturation calculation [?] */
(PID.TID 0000.0001)                 6.403800000000000E+05
(PID.TID 0000.0001)     ;
(PID.TID 0000.0001) cvapor_exp = /* const. for Saturation calculation [?] */
(PID.TID 0000.0001)                 5.107400000000000E+03
(PID.TID 0000.0001)     ;
(PID.TID 0000.0001) cvapor_fac_ice= /* const. for Saturation calculation [?] */
(PID.TID 0000.0001)                 1.163780000000000E+07
(PID.TID 0000.0001)     ;
(PID.TID 0000.0001) cvapor_exp_ice= /* const. for Saturation calculation [?] */
(PID.TID 0000.0001)                 5.897800000000000E+03
(PID.TID 0000.0001)     ;
(PID.TID 0000.0001) humid_fac = /* humidity coef. in virtual temp. [(kg/kg)^-1] */
(PID.TID 0000.0001)                 6.060000000000000E-01
(PID.TID 0000.0001)     ;
(PID.TID 0000.0001) gamma_blk = /* adiabatic lapse rate [?] */
(PID.TID 0000.0001)                 1.000000000000000E-02
(PID.TID 0000.0001)     ;
(PID.TID 0000.0001) saltsat = /* reduction of Qsat over salty water [-] */
(PID.TID 0000.0001)                 9.800000000000000E-01
(PID.TID 0000.0001)     ;
(PID.TID 0000.0001) noNegativeEvap = /* prevent negative Evaporation */
(PID.TID 0000.0001)                   F
(PID.TID 0000.0001)     ;
(PID.TID 0000.0001) sstExtrapol = /* extrapolation coeff from lev. 1 & 2 to surf [-] */
(PID.TID 0000.0001)                 0.000000000000000E+00
(PID.TID 0000.0001)     ;
(PID.TID 0000.0001) cDrag_1 = /* coef used in drag calculation [?] */
(PID.TID 0000.0001)                 2.700000000000000E-03
(PID.TID 0000.0001)     ;
(PID.TID 0000.0001) cDrag_2 = /* coef used in drag calculation [?] */
(PID.TID 0000.0001)                 1.420000000000000E-04
(PID.TID 0000.0001)     ;
(PID.TID 0000.0001) cDrag_3 = /* coef used in drag calculation [?] */
(PID.TID 0000.0001)                 7.640000000000000E-05
(PID.TID 0000.0001)     ;
(PID.TID 0000.0001) cStanton_1 = /* coef used in Stanton number calculation [?] */
(PID.TID 0000.0001)                 3.270000000000000E-02
(PID.TID 0000.0001)     ;
(PID.TID 0000.0001) cStanton_2 = /* coef used in Stanton number calculation [?] */
(PID.TID 0000.0001)                 1.800000000000000E-02
(PID.TID 0000.0001)     ;
(PID.TID 0000.0001) cDalton = /* coef used in Dalton number calculation [?] */
(PID.TID 0000.0001)                 3.460000000000000E-02
(PID.TID 0000.0001)     ;
(PID.TID 0000.0001) exf_scal_BulkCdn= /* Drag coefficient scaling factor [-] */
(PID.TID 0000.0001)                 1.000000000000000E+00
(PID.TID 0000.0001)     ;
(PID.TID 0000.0001) zolmin = /* minimum stability parameter [?] */
(PID.TID 0000.0001)                -1.000000000000000E+02
(PID.TID 0000.0001)     ;
(PID.TID 0000.0001) psim_fac = /* coef used in turbulent fluxes calculation [-] */
(PID.TID 0000.0001)                 5.000000000000000E+00
(PID.TID 0000.0001)     ;
(PID.TID 0000.0001) zref =  /* reference height [ m ] */
(PID.TID 0000.0001)                 1.000000000000000E+01
(PID.TID 0000.0001)     ;
(PID.TID 0000.0001) hu =  /* height of mean wind [ m ] */
(PID.TID 0000.0001)                 1.000000000000000E+01
(PID.TID 0000.0001)     ;
(PID.TID 0000.0001) ht =  /* height of mean temperature [ m ] */
(PID.TID 0000.0001)                 2.000000000000000E+00
(PID.TID 0000.0001)     ;
(PID.TID 0000.0001) hq =  /* height of mean spec.humidity [ m ] */
(PID.TID 0000.0001)                 2.000000000000000E+00
(PID.TID 0000.0001)     ;
(PID.TID 0000.0001) uMin = /* minimum wind speed [m/s] */
(PID.TID 0000.0001)                 5.000000000000000E-01
(PID.TID 0000.0001)     ;
(PID.TID 0000.0001) useStabilityFct_overIce= /* transfert Coeffs over sea-ice depend on stability */
(PID.TID 0000.0001)                   F
(PID.TID 0000.0001)     ;
(PID.TID 0000.0001) exf_iceCd = /* drag coefficient over sea-ice (fixed) [-] */
(PID.TID 0000.0001)                 1.630000000000000E-03
(PID.TID 0000.0001)     ;
(PID.TID 0000.0001) exf_iceCe = /* transfert coeff. over sea-ice, for Evap (fixed) [-] */
(PID.TID 0000.0001)                 1.630000000000000E-03
(PID.TID 0000.0001)     ;
(PID.TID 0000.0001) exf_iceCh = /* transfert coeff. over sea-ice, Sens.Heat.(fixed)[-] */
(PID.TID 0000.0001)                 1.630000000000000E-03
(PID.TID 0000.0001)     ;
(PID.TID 0000.0001) exf_albedo =  /* Sea-water albedo [-] */
(PID.TID 0000.0001)                 1.000000000000000E-01
(PID.TID 0000.0001)     ;
(PID.TID 0000.0001) useExfZenAlbedo = /* Sea-water albedo varies with zenith angle */
(PID.TID 0000.0001)                   F
(PID.TID 0000.0001)     ;
(PID.TID 0000.0001) select_ZenAlbedo = /* Sea-water albedo computation method */
(PID.TID 0000.0001)                       0
(PID.TID 0000.0001)     ;
(PID.TID 0000.0001) useExfZenIncoming = /* compute incoming solar radiation */
(PID.TID 0000.0001)                   F
(PID.TID 0000.0001)     ;
(PID.TID 0000.0001) ocean_emissivity = /* longwave ocean-surface emissivity [-] */
(PID.TID 0000.0001)                 9.700176366843034E-01
(PID.TID 0000.0001)     ;
(PID.TID 0000.0001) ice_emissivity = /* longwave seaice emissivity [-] */
(PID.TID 0000.0001)                 9.500000000000000E-01
(PID.TID 0000.0001)     ;
(PID.TID 0000.0001) snow_emissivity = /* longwave snow  emissivity [-] */
(PID.TID 0000.0001)                 9.500000000000000E-01
(PID.TID 0000.0001)     ;
(PID.TID 0000.0001) 
(PID.TID 0000.0001)  EXF main CPP flags:
(PID.TID 0000.0001) 
(PID.TID 0000.0001) // USE_EXF_INTERPOLATION:          NOT defined
(PID.TID 0000.0001) // ALLOW_ATM_TEMP:                     defined
(PID.TID 0000.0001) // ALLOW_ATM_WIND (useAtmWind):        defined
(PID.TID 0000.0001) // ALLOW_DOWNWARD_RADIATION:           defined
(PID.TID 0000.0001) // ALLOW_BULKFORMULAE:                 defined
(PID.TID 0000.0001) 
(PID.TID 0000.0001)    Net shortwave flux forcing starts at                0.
(PID.TID 0000.0001)    Net shortwave flux forcing period is                0.
(PID.TID 0000.0001)    Net shortwave flux forcing is read from file:
(PID.TID 0000.0001)    >>    <<
(PID.TID 0000.0001) 
(PID.TID 0000.0001)    Zonal wind forcing starts at                          0.
(PID.TID 0000.0001)    Zonal wind forcing period is                          0.
(PID.TID 0000.0001)    Zonal wind forcing is read from file:
(PID.TID 0000.0001)    >>    <<
(PID.TID 0000.0001) 
(PID.TID 0000.0001)    Meridional wind forcing starts at                     0.
(PID.TID 0000.0001)    Meridional wind forcing period is                     0.
(PID.TID 0000.0001)    Meridional wind forcing is read from file:
(PID.TID 0000.0001)    >>    <<
(PID.TID 0000.0001) 
(PID.TID 0000.0001)    Atmospheric temperature starts at                     0.
(PID.TID 0000.0001)    Atmospheric temperature period is                     0.
(PID.TID 0000.0001)    Atmospheric temperature is read from file:
(PID.TID 0000.0001)    >>    <<
(PID.TID 0000.0001) 
(PID.TID 0000.0001)    Atmospheric specific humidity starts at               0.
(PID.TID 0000.0001)    Atmospheric specific humidity period is               0.
(PID.TID 0000.0001)    Atmospheric specific humidity is read from file:
(PID.TID 0000.0001)    >>    <<
(PID.TID 0000.0001) 
(PID.TID 0000.0001)    Net longwave flux forcing starts at                 0.
(PID.TID 0000.0001)    Net longwave flux forcing period is                 0.
(PID.TID 0000.0001)    Net longwave flux forcing is read from file:
(PID.TID 0000.0001)    >>    <<
(PID.TID 0000.0001) 
(PID.TID 0000.0001)    Precipitation data set starts at                      0.
(PID.TID 0000.0001)    Precipitation data period is                          0.
(PID.TID 0000.0001)    Precipitation data is read from file:
(PID.TID 0000.0001)    >>    <<
(PID.TID 0000.0001) 
(PID.TID 0000.0001) // EXF_READ_EVAP:                  NOT defined
(PID.TID 0000.0001) 
(PID.TID 0000.0001) // ALLOW_RUNOFF:                       defined
(PID.TID 0000.0001)    Runoff starts at               0.
(PID.TID 0000.0001)    Runoff period is               0.
(PID.TID 0000.0001)    Runoff is read from file:
(PID.TID 0000.0001)    >>    <<
(PID.TID 0000.0001) 
(PID.TID 0000.0001)    Downward shortwave flux forcing starts at                0.
(PID.TID 0000.0001)    Downward shortwave flux forcing period is                0.
(PID.TID 0000.0001)    Downward shortwave flux forcing is read from file:
(PID.TID 0000.0001)    >>    <<
(PID.TID 0000.0001) 
(PID.TID 0000.0001)    Downward longwave flux forcing starts at                 0.
(PID.TID 0000.0001)    Downward longwave flux forcing period is                 0.
(PID.TID 0000.0001)    Downward longwave flux forcing is read from file:
(PID.TID 0000.0001)    >>    <<
(PID.TID 0000.0001) 
(PID.TID 0000.0001)    Atmospheric pressure forcing starts at                0.
(PID.TID 0000.0001)    Atmospheric pressure forcing period is                0.
(PID.TID 0000.0001)    Atmospheric pressureforcing is read from file:
(PID.TID 0000.0001)    >>    <<
(PID.TID 0000.0001) 
(PID.TID 0000.0001) // =======================================================
(PID.TID 0000.0001) // External forcing (EXF) climatology configuration :
(PID.TID 0000.0001) // =======================================================
(PID.TID 0000.0001) 
(PID.TID 0000.0001) // ALLOW_CLIMSST_RELAXATION:       NOT defined
(PID.TID 0000.0001) // ALLOW_CLIMSSS_RELAXATION:       NOT defined
(PID.TID 0000.0001) 
(PID.TID 0000.0001) // =======================================================
(PID.TID 0000.0001) // External forcing (EXF) configuration  >>> END <<<
(PID.TID 0000.0001) // =======================================================
(PID.TID 0000.0001) 
(PID.TID 0000.0001) QQ random port_rand               56   0.3052905000000000
(PID.TID 0000.0001)  OPEN_COPY_DATA_FILE: opening file data.traits
(PID.TID 0000.0001) // =======================================================
(PID.TID 0000.0001) // Parameter file "data.traits"
(PID.TID 0000.0001) // =======================================================
(PID.TID 0000.0001) > &DARWIN_TRAITS
(PID.TID 0000.0001) >#          Diat L  S  P az coc Z1 Z2
(PID.TID 0000.0001) > PHYSIZE=    1, 1, 0, 0, 1, 1, 0, 1,
(PID.TID 0000.0001) > DIACOC=     1, 0, 0, 0, 0, 2,
(PID.TID 0000.0001) > DIAZOTROPH= 0, 0, 0, 0, 1, 0,
(PID.TID 0000.0001) > NSOURCE=    3, 3, 3, 1, 0, 3,
(PID.TID 0000.0001) > wsink(5)= 0.0,
(PID.TID 0000.0001) > palat(5,7)= 0.1350,
(PID.TID 0000.0001) > palat(5,8)= 0.675,
(PID.TID 0000.0001) > morttempfuncmin= 8*0.0,
(PID.TID 0000.0001) > mort2tempfuncmin= 8*0.0,
(PID.TID 0000.0001) > /
(PID.TID 0000.0001) 
(PID.TID 0000.0001)  DARWIN_INIT_FIXED: opening data.traits
(PID.TID 0000.0001)  OPEN_COPY_DATA_FILE: opening file data.traits
(PID.TID 0000.0001) // =======================================================
(PID.TID 0000.0001) // Parameter file "data.traits"
(PID.TID 0000.0001) // =======================================================
(PID.TID 0000.0001) > &DARWIN_TRAITS
(PID.TID 0000.0001) >#          Diat L  S  P az coc Z1 Z2
(PID.TID 0000.0001) > PHYSIZE=    1, 1, 0, 0, 1, 1, 0, 1,
(PID.TID 0000.0001) > DIACOC=     1, 0, 0, 0, 0, 2,
(PID.TID 0000.0001) > DIAZOTROPH= 0, 0, 0, 0, 1, 0,
(PID.TID 0000.0001) > NSOURCE=    3, 3, 3, 1, 0, 3,
(PID.TID 0000.0001) > wsink(5)= 0.0,
(PID.TID 0000.0001) > palat(5,7)= 0.1350,
(PID.TID 0000.0001) > palat(5,8)= 0.675,
(PID.TID 0000.0001) > morttempfuncmin= 8*0.0,
(PID.TID 0000.0001) > mort2tempfuncmin= 8*0.0,
(PID.TID 0000.0001) > /
(PID.TID 0000.0001) 
(PID.TID 0000.0001)  ===================================
(PID.TID 0000.0001) %MON fCori_max                    =   1.4340032469286622E-04
(PID.TID 0000.0001) %MON fCori_min                    =  -1.4340032469286622E-04
(PID.TID 0000.0001) %MON fCori_mean                   =  -4.7512148536475886E-19
(PID.TID 0000.0001) %MON fCori_sd                     =   9.6604363594752368E-05
(PID.TID 0000.0001) %MON fCoriG_max                   =   1.4316293338671472E-04
(PID.TID 0000.0001) %MON fCoriG_min                   =  -1.4362679550909542E-04
(PID.TID 0000.0001) %MON fCoriG_mean                  =  -8.9766747193207384E-07
(PID.TID 0000.0001) %MON fCoriG_sd                    =   9.6601219725586662E-05
(PID.TID 0000.0001) %MON fCoriCos_max                 =   1.4583691710542328E-04
(PID.TID 0000.0001) %MON fCoriCos_min                 =   2.6577679221447745E-05
(PID.TID 0000.0001) %MON fCoriCos_mean                =   1.0286642071176022E-04
(PID.TID 0000.0001) %MON fCoriCos_sd                  =   3.6825569638793567E-05
(PID.TID 0000.0001) INI_CG2D: CG2D normalisation factor =  5.6948601716296077E-05
(PID.TID 0000.0001) 
(PID.TID 0000.0001) // =======================================================
(PID.TID 0000.0001) // Model configuration
(PID.TID 0000.0001) // =======================================================
(PID.TID 0000.0001) //
(PID.TID 0000.0001) // "Physical" paramters ( PARM01 in namelist )
(PID.TID 0000.0001) //
(PID.TID 0000.0001) buoyancyRelation = /* Type of relation to get Buoyancy */
(PID.TID 0000.0001)               'OCEANIC'
(PID.TID 0000.0001)     ;
(PID.TID 0000.0001) fluidIsAir   =  /* fluid major constituent is Air */
(PID.TID 0000.0001)                   F
(PID.TID 0000.0001)     ;
(PID.TID 0000.0001) fluidIsWater =  /* fluid major constituent is Water */
(PID.TID 0000.0001)                   T
(PID.TID 0000.0001)     ;
(PID.TID 0000.0001) usingPCoords =  /* use p (or p*) vertical coordinate */
(PID.TID 0000.0001)                   F
(PID.TID 0000.0001)     ;
(PID.TID 0000.0001) usingZCoords =  /* use z (or z*) vertical coordinate */
(PID.TID 0000.0001)                   T
(PID.TID 0000.0001)     ;
(PID.TID 0000.0001) tRef =   /* Reference temperature profile ( oC or K ) */
(PID.TID 0000.0001)                 2.400000000000000E+01,      /* K =  1 */
(PID.TID 0000.0001)                 2.300000000000000E+01,      /* K =  2 */
(PID.TID 0000.0001)                 2.200000000000000E+01,      /* K =  3 */
(PID.TID 0000.0001)                 2.100000000000000E+01,      /* K =  4 */
(PID.TID 0000.0001)                 2.000000000000000E+01,      /* K =  5 */
(PID.TID 0000.0001)                 1.900000000000000E+01,      /* K =  6 */
(PID.TID 0000.0001)                 1.800000000000000E+01,      /* K =  7 */
(PID.TID 0000.0001)                 1.700000000000000E+01,      /* K =  8 */
(PID.TID 0000.0001)                 1.600000000000000E+01,      /* K =  9 */
(PID.TID 0000.0001)                 1.500000000000000E+01,      /* K = 10 */
(PID.TID 0000.0001)                 1.400000000000000E+01,      /* K = 11 */
(PID.TID 0000.0001)                 1.300000000000000E+01,      /* K = 12 */
(PID.TID 0000.0001)                 1.200000000000000E+01,      /* K = 13 */
(PID.TID 0000.0001)                 1.100000000000000E+01,      /* K = 14 */
(PID.TID 0000.0001)                 1.000000000000000E+01,      /* K = 15 */
(PID.TID 0000.0001)                 9.000000000000000E+00,      /* K = 16 */
(PID.TID 0000.0001)                 8.000000000000000E+00,      /* K = 17 */
(PID.TID 0000.0001)                 7.000000000000000E+00,      /* K = 18 */
(PID.TID 0000.0001)                 6.000000000000000E+00,      /* K = 19 */
(PID.TID 0000.0001)                 5.000000000000000E+00,      /* K = 20 */
(PID.TID 0000.0001)                 4.000000000000000E+00,      /* K = 21 */
(PID.TID 0000.0001)                 3.000000000000000E+00,      /* K = 22 */
(PID.TID 0000.0001)                 2.000000000000000E+00       /* K = 23 */
(PID.TID 0000.0001)     ;
(PID.TID 0000.0001) sRef =   /* Reference salinity profile ( psu ) */
(PID.TID 0000.0001)                 3.465000000000000E+01,      /* K =  1 */
(PID.TID 0000.0001)                 3.475000000000000E+01,      /* K =  2 */
(PID.TID 0000.0001)                 3.482000000000000E+01,      /* K =  3 */
(PID.TID 0000.0001)                 3.487000000000000E+01,      /* K =  4 */
(PID.TID 0000.0001)     2 @  3.490000000000000E+01,             /* K =  5:  6 */
(PID.TID 0000.0001)                 3.486000000000000E+01,      /* K =  7 */
(PID.TID 0000.0001)                 3.478000000000000E+01,      /* K =  8 */
(PID.TID 0000.0001)                 3.469000000000000E+01,      /* K =  9 */
(PID.TID 0000.0001)                 3.460000000000000E+01,      /* K = 10 */
(PID.TID 0000.0001)                 3.458000000000000E+01,      /* K = 11 */
(PID.TID 0000.0001)                 3.462000000000000E+01,      /* K = 12 */
(PID.TID 0000.0001)                 3.468000000000000E+01,      /* K = 13 */
(PID.TID 0000.0001)                 3.472000000000000E+01,      /* K = 14 */
(PID.TID 0000.0001)                 3.473000000000000E+01,      /* K = 15 */
(PID.TID 0000.0001)                 3.474000000000000E+01,      /* K = 16 */
(PID.TID 0000.0001)     2 @  3.473000000000000E+01,             /* K = 17: 18 */
(PID.TID 0000.0001)     2 @  3.472000000000000E+01,             /* K = 19: 20 */
(PID.TID 0000.0001)                 3.471000000000000E+01,      /* K = 21 */
(PID.TID 0000.0001)                 3.470000000000000E+01,      /* K = 22 */
(PID.TID 0000.0001)                 3.469000000000000E+01       /* K = 23 */
(PID.TID 0000.0001)     ;
(PID.TID 0000.0001) viscAh  =   /* Lateral eddy viscosity ( m^2/s ) */
(PID.TID 0000.0001)                 1.000000000000000E+04
(PID.TID 0000.0001)     ;
(PID.TID 0000.0001) viscAhMax = /* Maximum lateral eddy viscosity ( m^2/s ) */
(PID.TID 0000.0001)                 1.000000000000000E+21
(PID.TID 0000.0001)     ;
(PID.TID 0000.0001) viscAhGrid = /* Grid dependent lateral eddy viscosity ( non-dim. ) */
(PID.TID 0000.0001)                 0.000000000000000E+00
(PID.TID 0000.0001)     ;
(PID.TID 0000.0001) useFullLeith = /* Use Full Form of Leith Viscosity on/off flag*/
(PID.TID 0000.0001)                   F
(PID.TID 0000.0001)     ;
(PID.TID 0000.0001) useStrainTensionVisc= /* Use StrainTension Form of Viscous Operator flag*/
(PID.TID 0000.0001)                   F
(PID.TID 0000.0001)     ;
(PID.TID 0000.0001) useAreaViscLength = /* Use area for visc length instead of geom. mean*/
(PID.TID 0000.0001)                   F
(PID.TID 0000.0001)     ;
(PID.TID 0000.0001) viscC2leith = /* Leith harmonic visc. factor (on grad(vort),non-dim.) */
(PID.TID 0000.0001)                 0.000000000000000E+00
(PID.TID 0000.0001)     ;
(PID.TID 0000.0001) viscC2leithD = /* Leith harmonic viscosity factor (on grad(div),non-dim.)*/
(PID.TID 0000.0001)                 0.000000000000000E+00
(PID.TID 0000.0001)     ;
(PID.TID 0000.0001) viscC2smag = /* Smagorinsky harmonic viscosity factor (non-dim.) */
(PID.TID 0000.0001)                 0.000000000000000E+00
(PID.TID 0000.0001)     ;
(PID.TID 0000.0001) viscA4  =   /* Lateral biharmonic viscosity ( m^4/s ) */
(PID.TID 0000.0001)                 0.000000000000000E+00
(PID.TID 0000.0001)     ;
(PID.TID 0000.0001) viscA4Max = /* Maximum biharmonic viscosity ( m^2/s ) */
(PID.TID 0000.0001)                 1.000000000000000E+21
(PID.TID 0000.0001)     ;
(PID.TID 0000.0001) viscA4Grid = /* Grid dependent biharmonic viscosity ( non-dim. ) */
(PID.TID 0000.0001)                 0.000000000000000E+00
(PID.TID 0000.0001)     ;
(PID.TID 0000.0001) viscC4leith = /* Leith biharm viscosity factor (on grad(vort), non-dim.)*/
(PID.TID 0000.0001)                 0.000000000000000E+00
(PID.TID 0000.0001)     ;
(PID.TID 0000.0001) viscC4leithD = /* Leith biharm viscosity factor (on grad(div), non-dim.) */
(PID.TID 0000.0001)                 0.000000000000000E+00
(PID.TID 0000.0001)     ;
(PID.TID 0000.0001) viscC4Smag = /* Smagorinsky biharm viscosity factor (non-dim) */
(PID.TID 0000.0001)                 0.000000000000000E+00
(PID.TID 0000.0001)     ;
(PID.TID 0000.0001) no_slip_sides =  /* Viscous BCs: No-slip sides */
(PID.TID 0000.0001)                   F
(PID.TID 0000.0001)     ;
(PID.TID 0000.0001) sideDragFactor = /* side-drag scaling factor (non-dim) */
(PID.TID 0000.0001)                 2.000000000000000E+00
(PID.TID 0000.0001)     ;
(PID.TID 0000.0001) viscArNr = /* vertical profile of vertical viscosity ( m^2/s )*/
(PID.TID 0000.0001)    23 @  1.000000000000000E-03              /* K =  1: 23 */
(PID.TID 0000.0001)     ;
(PID.TID 0000.0001) no_slip_bottom =  /* Viscous BCs: No-slip bottom */
(PID.TID 0000.0001)                   T
(PID.TID 0000.0001)     ;
(PID.TID 0000.0001) bottomDragLinear = /* linear bottom-drag coefficient ( m/s ) */
(PID.TID 0000.0001)                 0.000000000000000E+00
(PID.TID 0000.0001)     ;
(PID.TID 0000.0001) bottomDragQuadratic = /* quadratic bottom-drag coefficient (-) */
(PID.TID 0000.0001)                 0.000000000000000E+00
(PID.TID 0000.0001)     ;
(PID.TID 0000.0001) diffKhT =   /* Laplacian diffusion of heat laterally ( m^2/s ) */
(PID.TID 0000.0001)                 1.000000000000000E+02
(PID.TID 0000.0001)     ;
(PID.TID 0000.0001) diffK4T =   /* Biharmonic diffusion of heat laterally ( m^4/s ) */
(PID.TID 0000.0001)                 0.000000000000000E+00
(PID.TID 0000.0001)     ;
(PID.TID 0000.0001) diffKhS =   /* Laplacian diffusion of salt laterally ( m^2/s ) */
(PID.TID 0000.0001)                 1.000000000000000E+02
(PID.TID 0000.0001)     ;
(PID.TID 0000.0001) diffK4S =   /* Biharmonic diffusion of salt laterally ( m^4/s ) */
(PID.TID 0000.0001)                 0.000000000000000E+00
(PID.TID 0000.0001)     ;
(PID.TID 0000.0001) diffKrNrT = /* vertical profile of vertical diffusion of Temp ( m^2/s )*/
(PID.TID 0000.0001)    23 @  1.000000000000000E-05              /* K =  1: 23 */
(PID.TID 0000.0001)     ;
(PID.TID 0000.0001) diffKrNrS = /* vertical profile of vertical diffusion of Salt ( m^2/s )*/
(PID.TID 0000.0001)    23 @  1.000000000000000E-05              /* K =  1: 23 */
(PID.TID 0000.0001)     ;
(PID.TID 0000.0001) diffKrBL79surf = /* Surface diffusion for Bryan and Lewis 79 ( m^2/s ) */
(PID.TID 0000.0001)                 0.000000000000000E+00
(PID.TID 0000.0001)     ;
(PID.TID 0000.0001) diffKrBL79deep = /* Deep diffusion for Bryan and Lewis 1979 ( m^2/s ) */
(PID.TID 0000.0001)                 0.000000000000000E+00
(PID.TID 0000.0001)     ;
(PID.TID 0000.0001) diffKrBL79scl = /* Depth scale for Bryan and Lewis 1979 ( m ) */
(PID.TID 0000.0001)                 2.000000000000000E+02
(PID.TID 0000.0001)     ;
(PID.TID 0000.0001) diffKrBL79Ho = /* Turning depth for Bryan and Lewis 1979 ( m ) */
(PID.TID 0000.0001)                -2.000000000000000E+03
(PID.TID 0000.0001)     ;
(PID.TID 0000.0001) ivdc_kappa = /* Implicit Vertical Diffusivity for Convection ( m^2/s) */
(PID.TID 0000.0001)                 0.000000000000000E+00
(PID.TID 0000.0001)     ;
(PID.TID 0000.0001) hMixCriteria=  /* Criteria for mixed-layer diagnostic */
(PID.TID 0000.0001)                -8.000000000000000E-01
(PID.TID 0000.0001)     ;
(PID.TID 0000.0001) dRhoSmall =  /* Parameter for mixed-layer diagnostic */
(PID.TID 0000.0001)                 1.000000000000000E-06
(PID.TID 0000.0001)     ;
(PID.TID 0000.0001) hMixSmooth=  /* Smoothing parameter for mixed-layer diagnostic */
(PID.TID 0000.0001)                 0.000000000000000E+00
(PID.TID 0000.0001)     ;
(PID.TID 0000.0001) eosType =  /* Type of Equation of State */
(PID.TID 0000.0001)               'POLY3 '
(PID.TID 0000.0001)     ;
(PID.TID 0000.0001)   1  13.499  32.600  24.480  -0.201   0.771  -0.005  -0.002   0.000   0.000   0.000   0.000   0.000
(PID.TID 0000.0001)   2  13.498  32.600  24.525  -0.202   0.771  -0.005  -0.002   0.000   0.000   0.000   0.000   0.000
[...]
(PID.TID 0000.0001) %MON trcstat_ptracer14_sd         =   1.9180841914738660E-02
(PID.TID 0000.0001) %MON trcstat_ptracer14_del2       =   7.4631934447167782E-06
(PID.TID 0000.0001) %MON trcstat_ptracer15_max        =   1.2251442332887173E+02
(PID.TID 0000.0001) %MON trcstat_ptracer15_min        =   1.4689631193671057E-08
(PID.TID 0000.0001) %MON trcstat_ptracer15_mean       =   1.3516854735878642E-01
(PID.TID 0000.0001) %MON trcstat_ptracer15_sd         =   3.9836347698965313E-01
(PID.TID 0000.0001) %MON trcstat_ptracer15_del2       =   2.6642211541977936E-04
(PID.TID 0000.0001) %MON trcstat_ptracer16_max        =   1.2398038026355605E-02
(PID.TID 0000.0001) %MON trcstat_ptracer16_min        =   8.2242621241756572E-10
(PID.TID 0000.0001) %MON trcstat_ptracer16_mean       =   1.4249615279298867E-06
(PID.TID 0000.0001) %MON trcstat_ptracer16_sd         =   2.1779398595005539E-05
(PID.TID 0000.0001) %MON trcstat_ptracer16_del2       =   7.9431234165889533E-09
(PID.TID 0000.0001) %MON trcstat_ptracer17_max        =   3.9037432053061667E+02
(PID.TID 0000.0001) %MON trcstat_ptracer17_min        =   1.8118387239884232E-10
(PID.TID 0000.0001) %MON trcstat_ptracer17_mean       =   2.2815702878833483E-01
(PID.TID 0000.0001) %MON trcstat_ptracer17_sd         =   1.0004477226137798E+00
(PID.TID 0000.0001) %MON trcstat_ptracer17_del2       =   1.5404936533040729E-03
(PID.TID 0000.0001) %MON trcstat_ptracer18_max        =   2.4565616494575161E+03
(PID.TID 0000.0001) %MON trcstat_ptracer18_min        =   2.1809077340360736E+03
(PID.TID 0000.0001) %MON trcstat_ptracer18_mean       =   2.3632512400001419E+03
(PID.TID 0000.0001) %MON trcstat_ptracer18_sd         =   4.2539025350643755E+01
(PID.TID 0000.0001) %MON trcstat_ptracer18_del2       =   2.4335759486553998E-03
(PID.TID 0000.0001) %MON trcstat_ptracer19_max        =   3.9962061347140047E+02
(PID.TID 0000.0001) %MON trcstat_ptracer19_min        =   3.1135246183674012E+00
(PID.TID 0000.0001) %MON trcstat_ptracer19_mean       =   1.7468551319577466E+02
(PID.TID 0000.0001) %MON trcstat_ptracer19_sd         =   6.2898636915239116E+01
(PID.TID 0000.0001) %MON trcstat_ptracer19_del2       =   5.0565709858294977E-03
(PID.TID 0000.0001) %MON trcstat_ptracer20_max        =   2.6150898485134495E+00
(PID.TID 0000.0001) %MON trcstat_ptracer20_min        =  -5.4604240085363015E-08
(PID.TID 0000.0001) %MON trcstat_ptracer20_mean       =   2.8987846649577119E-03
(PID.TID 0000.0001) %MON trcstat_ptracer20_sd         =   2.6027673259717270E-02
(PID.TID 0000.0001) %MON trcstat_ptracer20_del2       =   6.2929742606233145E-05
(PID.TID 0000.0001) %MON trcstat_ptracer21_max        =   2.5812484517427232E+00
(PID.TID 0000.0001) %MON trcstat_ptracer21_min        =  -5.4602896123309822E-08
(PID.TID 0000.0001) %MON trcstat_ptracer21_mean       =   2.8885009813166508E-03
(PID.TID 0000.0001) %MON trcstat_ptracer21_sd         =   2.5918751898259134E-02
(PID.TID 0000.0001) %MON trcstat_ptracer21_del2       =   6.2410289757188519E-05
(PID.TID 0000.0001) %MON trcstat_ptracer22_max        =   2.3941793690294251E+00
(PID.TID 0000.0001) %MON trcstat_ptracer22_min        =  -1.7332033520530195E-06
(PID.TID 0000.0001) %MON trcstat_ptracer22_mean       =   2.7965364109022593E-03
(PID.TID 0000.0001) %MON trcstat_ptracer22_sd         =   2.5063747096521975E-02
(PID.TID 0000.0001) %MON trcstat_ptracer22_del2       =   6.0142707614540017E-05
(PID.TID 0000.0001) %MON trcstat_ptracer23_max        =   2.1912390684095220E+00
(PID.TID 0000.0001) %MON trcstat_ptracer23_min        =  -1.7202545485013299E-06
(PID.TID 0000.0001) %MON trcstat_ptracer23_mean       =   2.6908564111583783E-03
(PID.TID 0000.0001) %MON trcstat_ptracer23_sd         =   2.4372614398327625E-02
(PID.TID 0000.0001) %MON trcstat_ptracer23_del2       =   5.8407007964354191E-05
(PID.TID 0000.0001) %MON trcstat_ptracer24_max        =   2.1030612260068410E-01
(PID.TID 0000.0001) %MON trcstat_ptracer24_min        =  -1.7388889110080378E-07
(PID.TID 0000.0001) %MON trcstat_ptracer24_mean       =   2.6278724665877669E-04
(PID.TID 0000.0001) %MON trcstat_ptracer24_sd         =   2.3502307920417738E-03
(PID.TID 0000.0001) %MON trcstat_ptracer24_del2       =   5.4378263458039952E-06
(PID.TID 0000.0001) %MON trcstat_ptracer25_max        =   2.4948064535653414E+00
(PID.TID 0000.0001) %MON trcstat_ptracer25_min        =  -5.4606256181357465E-08
(PID.TID 0000.0001) %MON trcstat_ptracer25_mean       =   2.8665949141006915E-03
(PID.TID 0000.0001) %MON trcstat_ptracer25_sd         =   2.5666158159865782E-02
(PID.TID 0000.0001) %MON trcstat_ptracer25_del2       =   6.1497174840485579E-05
(PID.TID 0000.0001) %MON trcstat_ptracer26_max        =   1.0756646248627708E+00
(PID.TID 0000.0001) %MON trcstat_ptracer26_min        =  -2.8356053820151483E-07
(PID.TID 0000.0001) %MON trcstat_ptracer26_mean       =   6.7451579044011173E-03
(PID.TID 0000.0001) %MON trcstat_ptracer26_sd         =   4.1048625319210087E-02
(PID.TID 0000.0001) %MON trcstat_ptracer26_del2       =   4.3052194479991743E-05
(PID.TID 0000.0001) %MON trcstat_ptracer27_max        =   1.0876109009398556E+00
(PID.TID 0000.0001) %MON trcstat_ptracer27_min        =  -2.8357167351121167E-07
(PID.TID 0000.0001) %MON trcstat_ptracer27_mean       =   6.7551895632018445E-03
(PID.TID 0000.0001) %MON trcstat_ptracer27_sd         =   4.1133273576511885E-02
(PID.TID 0000.0001) %MON trcstat_ptracer27_del2       =   4.3211286275656545E-05
(PID.TID 0000.0001) %MON trcstat_ptracer28_max        =   6.3681075677853149E-01
(PID.TID 0000.0001) %MON trcstat_ptracer28_min        =  -2.7300960140210738E-08
(PID.TID 0000.0001) %MON trcstat_ptracer28_mean       =   1.0559540199807330E-03
(PID.TID 0000.0001) %MON trcstat_ptracer28_sd         =   8.9230754186137712E-03
(PID.TID 0000.0001) %MON trcstat_ptracer28_del2       =   2.1944574914873668E-05
(PID.TID 0000.0001) %MON trcstat_ptracer29_max        =   6.1291716260372231E-01
(PID.TID 0000.0001) %MON trcstat_ptracer29_min        =  -2.7300227153293722E-08
(PID.TID 0000.0001) %MON trcstat_ptracer29_mean       =   1.0437607476491537E-03
(PID.TID 0000.0001) %MON trcstat_ptracer29_sd         =   8.8000109373511139E-03
(PID.TID 0000.0001) %MON trcstat_ptracer29_del2       =   2.1522254057630993E-05
(PID.TID 0000.0001) %MON trcstat_ptracer30_max        =   2.1494018221082556E-01
(PID.TID 0000.0001) %MON trcstat_ptracer30_min        =  -1.1571502926249787E-07
(PID.TID 0000.0001) %MON trcstat_ptracer30_mean       =   3.9911725389143131E-04
(PID.TID 0000.0001) %MON trcstat_ptracer30_sd         =   3.3319293585960335E-03
(PID.TID 0000.0001) %MON trcstat_ptracer30_del2       =   8.0418646493725522E-06
(PID.TID 0000.0001) %MON trcstat_ptracer31_max        =   2.1082934244276119E-01
(PID.TID 0000.0001) %MON trcstat_ptracer31_min        =  -1.1571049828026000E-07
(PID.TID 0000.0001) %MON trcstat_ptracer31_mean       =   3.7582594736141586E-04
(PID.TID 0000.0001) %MON trcstat_ptracer31_sd         =   3.1765219111611689E-03
(PID.TID 0000.0001) %MON trcstat_ptracer31_del2       =   7.5909352367940755E-06
(PID.TID 0000.0001) %MON trcstat_ptracer32_max        =   3.6330699764915361E-02
(PID.TID 0000.0001) %MON trcstat_ptracer32_min        =  -2.8927366330628358E-08
(PID.TID 0000.0001) %MON trcstat_ptracer32_mean       =   6.7286133046634181E-05
(PID.TID 0000.0001) %MON trcstat_ptracer32_sd         =   5.4051450068290916E-04
(PID.TID 0000.0001) %MON trcstat_ptracer32_del2       =   1.2150469171274537E-06
(PID.TID 0000.0001) %MON trcstat_ptracer33_max        =   5.5620128942223857E-01
(PID.TID 0000.0001) %MON trcstat_ptracer33_min        =  -2.7301666031347943E-08
(PID.TID 0000.0001) %MON trcstat_ptracer33_mean       =   1.0057373421964158E-03
(PID.TID 0000.0001) %MON trcstat_ptracer33_sd         =   8.4112172012066784E-03
(PID.TID 0000.0001) %MON trcstat_ptracer33_del2       =   2.0366261452784151E-05
(PID.TID 0000.0001) // =======================================================
(PID.TID 0000.0001) // End MONITOR ptracers field statistics
(PID.TID 0000.0001) // =======================================================
(PID.TID 0000.0001) %CHECKPOINT         4 ckptA
(PID.TID 0000.0001)   Seconds in section "ALL                    [THE_MODEL_MAIN]":
(PID.TID 0000.0001)           User time:   24.059999999999999
(PID.TID 0000.0001)         System time:   1.8000000000000000
(PID.TID 0000.0001)     Wall clock time:   38.398923873901367
(PID.TID 0000.0001)          No. starts:           1
(PID.TID 0000.0001)           No. stops:           1
(PID.TID 0000.0001)   Seconds in section "INITIALISE_FIXED       [THE_MODEL_MAIN]":
(PID.TID 0000.0001)           User time:   4.4100000000000001
(PID.TID 0000.0001)         System time:  0.16000000000000003
(PID.TID 0000.0001)     Wall clock time:   6.0353710651397705
(PID.TID 0000.0001)          No. starts:           1
(PID.TID 0000.0001)           No. stops:           1
(PID.TID 0000.0001)   Seconds in section "THE_MAIN_LOOP          [THE_MODEL_MAIN]":
(PID.TID 0000.0001)           User time:   19.649999999999999
(PID.TID 0000.0001)         System time:   1.6400000000000001
(PID.TID 0000.0001)     Wall clock time:   32.361167907714844
(PID.TID 0000.0001)          No. starts:           1
(PID.TID 0000.0001)           No. stops:           1
(PID.TID 0000.0001)   Seconds in section "INITIALISE_VARIA    [THE_MAIN_LOOP]":
(PID.TID 0000.0001)           User time:   3.9699999999999998
(PID.TID 0000.0001)         System time:  0.52000000000000002
(PID.TID 0000.0001)     Wall clock time:   7.8830418586730957
(PID.TID 0000.0001)          No. starts:           1
(PID.TID 0000.0001)           No. stops:           1
(PID.TID 0000.0001)   Seconds in section "MAIN LOOP           [THE_MAIN_LOOP]":
(PID.TID 0000.0001)           User time:   15.680000000000000
(PID.TID 0000.0001)         System time:   1.1200000000000001
(PID.TID 0000.0001)     Wall clock time:   24.478086948394775
(PID.TID 0000.0001)          No. starts:           1
(PID.TID 0000.0001)           No. stops:           1
(PID.TID 0000.0001)   Seconds in section "FORWARD_STEP        [THE_MAIN_LOOP]":
(PID.TID 0000.0001)           User time:   15.680000000000000
(PID.TID 0000.0001)         System time:   1.1200000000000001
(PID.TID 0000.0001)     Wall clock time:   24.478025913238525
(PID.TID 0000.0001)          No. starts:           4
(PID.TID 0000.0001)           No. stops:           4
(PID.TID 0000.0001)   Seconds in section "LOAD_FIELDS_DRIVER  [FORWARD_STEP]":
(PID.TID 0000.0001)           User time:   8.0000000000005400E-002
(PID.TID 0000.0001)         System time:   0.0000000000000000
(PID.TID 0000.0001)     Wall clock time:   7.8684091567993164E-002
(PID.TID 0000.0001)          No. starts:           4
(PID.TID 0000.0001)           No. stops:           4
(PID.TID 0000.0001)   Seconds in section "EXF_GETFORCING     [LOAD_FLDS_DRIVER]":
(PID.TID 0000.0001)           User time:   1.9999999999996021E-002
(PID.TID 0000.0001)         System time:   0.0000000000000000
(PID.TID 0000.0001)     Wall clock time:   2.4610757827758789E-002
(PID.TID 0000.0001)          No. starts:           4
(PID.TID 0000.0001)           No. stops:           4
(PID.TID 0000.0001)   Seconds in section "EXTERNAL_FLDS_LOAD [LOAD_FLDS_DRIVER]":
(PID.TID 0000.0001)           User time:   0.0000000000000000
(PID.TID 0000.0001)         System time:   0.0000000000000000
(PID.TID 0000.0001)     Wall clock time:   1.0542869567871094E-003
(PID.TID 0000.0001)          No. starts:           4
(PID.TID 0000.0001)           No. stops:           4
(PID.TID 0000.0001)   Seconds in section "OFFLINE_FLDS_LOAD  [LOAD_FLDS_DRIVER]":
(PID.TID 0000.0001)           User time:   6.0000000000005826E-002
(PID.TID 0000.0001)         System time:   0.0000000000000000
(PID.TID 0000.0001)     Wall clock time:   5.1957130432128906E-002
(PID.TID 0000.0001)          No. starts:           4
(PID.TID 0000.0001)           No. stops:           4
(PID.TID 0000.0001)   Seconds in section "DO_ATMOSPHERIC_PHYS [FORWARD_STEP]":
(PID.TID 0000.0001)           User time:   0.0000000000000000
(PID.TID 0000.0001)         System time:   0.0000000000000000
(PID.TID 0000.0001)     Wall clock time:   4.7206878662109375E-005
(PID.TID 0000.0001)          No. starts:           4
(PID.TID 0000.0001)           No. stops:           4
(PID.TID 0000.0001)   Seconds in section "GCHEM_CALC_TENDENCY [FORWARD_STEP]":
(PID.TID 0000.0001)           User time:   0.0000000000000000
(PID.TID 0000.0001)         System time:   0.0000000000000000
(PID.TID 0000.0001)     Wall clock time:   5.3882598876953125E-005
(PID.TID 0000.0001)          No. starts:           4
(PID.TID 0000.0001)           No. stops:           4
(PID.TID 0000.0001)   Seconds in section "THERMODYNAMICS      [FORWARD_STEP]":
(PID.TID 0000.0001)           User time:   8.3899999999999970
(PID.TID 0000.0001)         System time:   0.0000000000000000
(PID.TID 0000.0001)     Wall clock time:   8.4222135543823242
(PID.TID 0000.0001)          No. starts:           4
(PID.TID 0000.0001)           No. stops:           4
(PID.TID 0000.0001)   Seconds in section "TRC_CORRECTION_STEP [FORWARD_STEP]":
(PID.TID 0000.0001)           User time:   7.0000000000000284E-002
(PID.TID 0000.0001)         System time:   0.0000000000000000
(PID.TID 0000.0001)     Wall clock time:   7.1560144424438477E-002
(PID.TID 0000.0001)          No. starts:           4
(PID.TID 0000.0001)           No. stops:           4
(PID.TID 0000.0001)   Seconds in section "GCHEM_FORCING_SEP  [FORWARD_STEP]":
(PID.TID 0000.0001)           User time:   2.8099999999999987
(PID.TID 0000.0001)         System time:   0.0000000000000000
(PID.TID 0000.0001)     Wall clock time:   2.8608019351959229
(PID.TID 0000.0001)          No. starts:           4
(PID.TID 0000.0001)           No. stops:           4
(PID.TID 0000.0001)   Seconds in section "DARWIN_FORCING [GCHEM_FORCING_SEP]":
(PID.TID 0000.0001)           User time:   1.0399999999999991
(PID.TID 0000.0001)         System time:   0.0000000000000000
(PID.TID 0000.0001)     Wall clock time:   1.0536811351776123
(PID.TID 0000.0001)          No. starts:           4
(PID.TID 0000.0001)           No. stops:           4
(PID.TID 0000.0001)   Seconds in section "DARWIN_LIGHT [DARWIN_FORCING]":
(PID.TID 0000.0001)           User time:   7.0000000000000284E-002
(PID.TID 0000.0001)         System time:   0.0000000000000000
(PID.TID 0000.0001)     Wall clock time:   5.6346893310546875E-002
(PID.TID 0000.0001)          No. starts:           4
(PID.TID 0000.0001)           No. stops:           4
(PID.TID 0000.0001)   Seconds in section "DARWIN_FE_CHEM1 [DARWIN_FORCING]":
(PID.TID 0000.0001)           User time:   3.0000000000004690E-002
(PID.TID 0000.0001)         System time:   0.0000000000000000
(PID.TID 0000.0001)     Wall clock time:   2.9209852218627930E-002
(PID.TID 0000.0001)          No. starts:           4
(PID.TID 0000.0001)           No. stops:           4
(PID.TID 0000.0001)   Seconds in section "DARWIN_MODEL [DARWIN_FORCING]":
(PID.TID 0000.0001)           User time:  0.55999999999999872
(PID.TID 0000.0001)         System time:   0.0000000000000000
(PID.TID 0000.0001)     Wall clock time:  0.56941294670104980
(PID.TID 0000.0001)          No. starts:           4
(PID.TID 0000.0001)           No. stops:           4
(PID.TID 0000.0001)   Seconds in section "DARWIN_GRAZING [DARWIN_FORCING]":
(PID.TID 0000.0001)           User time:  0.20000000000000284
(PID.TID 0000.0001)         System time:   0.0000000000000000
(PID.TID 0000.0001)     Wall clock time:  0.21023225784301758
(PID.TID 0000.0001)          No. starts:           4
(PID.TID 0000.0001)           No. stops:           4
(PID.TID 0000.0001)   Seconds in section "DARWIN_SINKING [DARWIN_FORCING]":
(PID.TID 0000.0001)           User time:  0.12999999999999901
(PID.TID 0000.0001)         System time:   0.0000000000000000
(PID.TID 0000.0001)     Wall clock time:  0.13405203819274902
(PID.TID 0000.0001)          No. starts:           4
(PID.TID 0000.0001)           No. stops:           4
(PID.TID 0000.0001)   Seconds in section "DIAGS_FILL [DARWIN_FORCING]":
(PID.TID 0000.0001)           User time:   0.0000000000000000
(PID.TID 0000.0001)         System time:   0.0000000000000000
(PID.TID 0000.0001)     Wall clock time:   1.4209747314453125E-004
(PID.TID 0000.0001)          No. starts:           4
(PID.TID 0000.0001)           No. stops:           4
(PID.TID 0000.0001)   Seconds in section "DARWIN_FE_CHEM1 [GCHEM_FORCING_SEP]":
(PID.TID 0000.0001)           User time:   2.0000000000003126E-002
(PID.TID 0000.0001)         System time:   0.0000000000000000
(PID.TID 0000.0001)     Wall clock time:   2.9203891754150391E-002
(PID.TID 0000.0001)          No. starts:           4
(PID.TID 0000.0001)           No. stops:           4
(PID.TID 0000.0001)   Seconds in section "BLOCKING_EXCHANGES  [FORWARD_STEP]":
(PID.TID 0000.0001)           User time:   4.9999999999997158E-002
(PID.TID 0000.0001)         System time:   0.0000000000000000
(PID.TID 0000.0001)     Wall clock time:   6.6097021102905273E-002
(PID.TID 0000.0001)          No. starts:           4
(PID.TID 0000.0001)           No. stops:           4
(PID.TID 0000.0001)   Seconds in section "DO_STATEVARS_TAVE   [FORWARD_STEP]":
(PID.TID 0000.0001)           User time:  0.14999999999999858
(PID.TID 0000.0001)         System time:   0.0000000000000000
(PID.TID 0000.0001)     Wall clock time:  0.13869023323059082
(PID.TID 0000.0001)          No. starts:           4
(PID.TID 0000.0001)           No. stops:           4
(PID.TID 0000.0001)   Seconds in section "MONITOR             [FORWARD_STEP]":
(PID.TID 0000.0001)           User time:   3.0000000000001137E-002
(PID.TID 0000.0001)         System time:   0.0000000000000000
(PID.TID 0000.0001)     Wall clock time:   3.3193111419677734E-002
(PID.TID 0000.0001)          No. starts:           4
(PID.TID 0000.0001)           No. stops:           4
(PID.TID 0000.0001)   Seconds in section "DO_THE_MODEL_IO     [FORWARD_STEP]":
(PID.TID 0000.0001)           User time:   1.0100000000000016
(PID.TID 0000.0001)         System time:   8.0000000000000071E-002
(PID.TID 0000.0001)     Wall clock time:   1.8738539218902588
(PID.TID 0000.0001)          No. starts:           4
(PID.TID 0000.0001)           No. stops:           4
(PID.TID 0000.0001)   Seconds in section "DO_WRITE_PICKUP     [FORWARD_STEP]":
(PID.TID 0000.0001)           User time:   3.0899999999999999
(PID.TID 0000.0001)         System time:   1.0400000000000000
(PID.TID 0000.0001)     Wall clock time:   10.932232618331909
(PID.TID 0000.0001)          No. starts:           4
(PID.TID 0000.0001)           No. stops:           4
(PID.TID 0000.0001) // ======================================================
(PID.TID 0000.0001) // Tile <-> Tile communication statistics
(PID.TID 0000.0001) // ======================================================
(PID.TID 0000.0001) // o Tile number: 000001
(PID.TID 0000.0001) //         No. X exchanges =              0
(PID.TID 0000.0001) //            Max. X spins =              0
(PID.TID 0000.0001) //            Min. X spins =     1000000000
(PID.TID 0000.0001) //          Total. X spins =              0
(PID.TID 0000.0001) //            Avg. X spins =       0.00E+00
(PID.TID 0000.0001) //         No. Y exchanges =              0
(PID.TID 0000.0001) //            Max. Y spins =              0
(PID.TID 0000.0001) //            Min. Y spins =     1000000000
(PID.TID 0000.0001) //          Total. Y spins =              0
(PID.TID 0000.0001) //            Avg. Y spins =       0.00E+00
(PID.TID 0000.0001) // o Thread number: 000001
(PID.TID 0000.0001) //            No. barriers =           7000
(PID.TID 0000.0001) //      Max. barrier spins =              1
(PID.TID 0000.0001) //      Min. barrier spins =              1
(PID.TID 0000.0001) //     Total barrier spins =           7000
(PID.TID 0000.0001) //      Avg. barrier spins =       1.00E+00
PROGRAM MAIN: Execution ended Normally
