(PID.TID 0000.0001) 
(PID.TID 0000.0001) // ======================================================
(PID.TID 0000.0001) //                      MITgcm UV
(PID.TID 0000.0001) //                      =========
(PID.TID 0000.0001) // ======================================================
(PID.TID 0000.0001) // execution environment starting up...
(PID.TID 0000.0001) 
(PID.TID 0000.0001) // Build user:        jahn
(PID.TID 0000.0001) // Build host:        saramago.mit.edu
(PID.TID 0000.0001) // Build date:        Fri Jan 25 22:38:55 EST 2013
(PID.TID 0000.0001) 
(PID.TID 0000.0001) // =======================================================
(PID.TID 0000.0001) // Execution Environment parameter file "eedata"
(PID.TID 0000.0001) // =======================================================
(PID.TID 0000.0001) ># Example "eedata" file
(PID.TID 0000.0001) ># Lines beginning "#" are comments
(PID.TID 0000.0001) ># nTx - No. threads per process in X
(PID.TID 0000.0001) ># nTy - No. threads per process in Y
(PID.TID 0000.0001) > &EEPARMS
(PID.TID 0000.0001) > nTx=1,nTy=1
(PID.TID 0000.0001) > /
(PID.TID 0000.0001) ># Note: Some systems use & as the
(PID.TID 0000.0001) ># namelist terminator. Other systems
(PID.TID 0000.0001) ># use a / character (as shown here).
(PID.TID 0000.0001) 
(PID.TID 0000.0001) // =======================================================
(PID.TID 0000.0001) // Computational Grid Specification ( see files "SIZE.h" )
(PID.TID 0000.0001) //                                  ( and "eedata"       )
(PID.TID 0000.0001) // =======================================================
(PID.TID 0000.0001)      nPx =    1 ; /* No. processes in X */
(PID.TID 0000.0001)      nPy =    1 ; /* No. processes in Y */
(PID.TID 0000.0001)      nSx =    2 ; /* No. tiles in X per process */
(PID.TID 0000.0001)      nSy =    1 ; /* No. tiles in Y per process */
(PID.TID 0000.0001)      sNx =   64 ; /* Tile size in X */
(PID.TID 0000.0001)      sNy =   64 ; /* Tile size in Y */
(PID.TID 0000.0001)      OLx =    4 ; /* Tile overlap distance in X */
(PID.TID 0000.0001)      OLy =    4 ; /* Tile overlap distance in Y */
(PID.TID 0000.0001)      nTx =    1 ; /* No. threads in X per process */
(PID.TID 0000.0001)      nTy =    1 ; /* No. threads in Y per process */
(PID.TID 0000.0001)       Nr =   15 ; /* No. levels in the vertical   */
(PID.TID 0000.0001)       Nx =  128 ; /* Total domain size in X ( = nPx*nSx*sNx ) */
(PID.TID 0000.0001)       Ny =   64 ; /* Total domain size in Y ( = nPy*nSy*sNy ) */
(PID.TID 0000.0001)   nTiles =    2 ; /* Total no. tiles per process ( = nSx*nSy ) */
(PID.TID 0000.0001)   nProcs =    1 ; /* Total no. processes ( = nPx*nPy ) */
(PID.TID 0000.0001) nThreads =    1 ; /* Total no. threads per process ( = nTx*nTy ) */
(PID.TID 0000.0001) usingMPI =    F ; /* Flag used to control whether MPI is in use */
(PID.TID 0000.0001)                   /*  note: To execute a program with MPI calls */
(PID.TID 0000.0001)                   /*  it must be launched appropriately e.g     */
(PID.TID 0000.0001)                   /*  "mpirun -np 64 ......"                    */
(PID.TID 0000.0001) useCoupler=    F ;/* Flag used to control communications with   */
(PID.TID 0000.0001)                   /*  other model components, through a coupler */
(PID.TID 0000.0001) debugMode =    F ; /* print debug msg. (sequence of S/R calls)  */
(PID.TID 0000.0001) printMapIncludesZeros=    F ; /* print zeros in Std.Output maps */
(PID.TID 0000.0001) maxLengthPrt1D=   65 /* maxLength of 1D array printed to StdOut */
(PID.TID 0000.0001) 
(PID.TID 0000.0001) // ======================================================
(PID.TID 0000.0001) // Mapping of tiles to threads
(PID.TID 0000.0001) // ======================================================
(PID.TID 0000.0001) // -o- Thread   1, tiles (   1:   2,   1:   1)
(PID.TID 0000.0001) 
(PID.TID 0000.0001) // ======================================================
(PID.TID 0000.0001) // Tile <-> Tile connectvity table
(PID.TID 0000.0001) // ======================================================
(PID.TID 0000.0001) // Tile number: 000001 (process no. = 000000)
(PID.TID 0000.0001) //        WEST: Tile = 000002, Process = 000000, Comm = put
(PID.TID 0000.0001) //                bi = 000002, bj = 000001
(PID.TID 0000.0001) //        EAST: Tile = 000002, Process = 000000, Comm = put
(PID.TID 0000.0001) //                bi = 000002, bj = 000001
(PID.TID 0000.0001) //       SOUTH: Tile = 000001, Process = 000000, Comm = put
(PID.TID 0000.0001) //                bi = 000001, bj = 000001
(PID.TID 0000.0001) //       NORTH: Tile = 000001, Process = 000000, Comm = put
(PID.TID 0000.0001) //                bi = 000001, bj = 000001
(PID.TID 0000.0001) // Tile number: 000002 (process no. = 000000)
(PID.TID 0000.0001) //        WEST: Tile = 000001, Process = 000000, Comm = put
(PID.TID 0000.0001) //                bi = 000001, bj = 000001
(PID.TID 0000.0001) //        EAST: Tile = 000001, Process = 000000, Comm = put
(PID.TID 0000.0001) //                bi = 000001, bj = 000001
(PID.TID 0000.0001) //       SOUTH: Tile = 000002, Process = 000000, Comm = put
(PID.TID 0000.0001) //                bi = 000002, bj = 000001
(PID.TID 0000.0001) //       NORTH: Tile = 000002, Process = 000000, Comm = put
(PID.TID 0000.0001) //                bi = 000002, bj = 000001
(PID.TID 0000.0001) 
(PID.TID 0000.0001)  INI_PARMS: opening model parameter file "data"
(PID.TID 0000.0001)  OPEN_COPY_DATA_FILE: opening file data
(PID.TID 0000.0001) // =======================================================
(PID.TID 0000.0001) // Parameter file "data"
(PID.TID 0000.0001) // =======================================================
(PID.TID 0000.0001) ># ====================
(PID.TID 0000.0001) ># | Model parameters |
(PID.TID 0000.0001) ># ====================
(PID.TID 0000.0001) >#
(PID.TID 0000.0001) ># Continuous equation parameters
(PID.TID 0000.0001) > &PARM01
(PID.TID 0000.0001) > tRef=15*20.,
(PID.TID 0000.0001) > sRef=15*35.,
(PID.TID 0000.0001) > viscA4=0.,
(PID.TID 0000.0001) > viscAh=5.E5,
(PID.TID 0000.0001) > diffKhT=0.E3,
(PID.TID 0000.0001) > diffKhS=0.E3,
(PID.TID 0000.0001) > viscAz=1.E-3,
(PID.TID 0000.0001) > diffKzT=5.E-5,
(PID.TID 0000.0001) > diffKzS=5.E-5,
(PID.TID 0000.0001) > beta=1.E-11,
(PID.TID 0000.0001) > f0=1.e-4,
(PID.TID 0000.0001) > tAlpha=2.E-4,
(PID.TID 0000.0001) > sBeta =7.4E-4,
(PID.TID 0000.0001) > gravity=9.81,
(PID.TID 0000.0001) > gBaro=9.81,
(PID.TID 0000.0001) > rhonil=1035.,
(PID.TID 0000.0001) > rigidLid=.FALSE.,
(PID.TID 0000.0001) > implicitFreeSurface=.TRUE.,
(PID.TID 0000.0001) > eosType='POLY3',
(PID.TID 0000.0001) > implicitDiffusion=.TRUE.,
(PID.TID 0000.0001) > implicitViscosity=.TRUE.,
(PID.TID 0000.0001) > ivdc_kappa=100.,
(PID.TID 0000.0001) > tempAdvScheme       = 2
(PID.TID 0000.0001) > saltAdvScheme       = 2
(PID.TID 0000.0001) > tempStepping        = .TRUE.
(PID.TID 0000.0001) > saltStepping        = .TRUE.
(PID.TID 0000.0001) > multiDimAdvection   = .FALSE.
(PID.TID 0000.0001) > allowFreezing=.TRUE.,
(PID.TID 0000.0001) > useCDscheme=.TRUE.,
(PID.TID 0000.0001) >#usePickupBeforeC54=.TRUE.,
(PID.TID 0000.0001) > writeBinaryPrec= 64,
(PID.TID 0000.0001) > /
(PID.TID 0000.0001) >
(PID.TID 0000.0001) ># Elliptic solver parameters
(PID.TID 0000.0001) > &PARM02
(PID.TID 0000.0001) > cg2dMaxIters=1000,
(PID.TID 0000.0001) > cg2dTargetResidual=1.E-13,
(PID.TID 0000.0001) > /
(PID.TID 0000.0001) >
(PID.TID 0000.0001) ># Time stepping parameters
(PID.TID 0000.0001) > &PARM03
(PID.TID 0000.0001) > nIter0=5644800,
(PID.TID 0000.0001) > nTimeSteps = 4,
(PID.TID 0000.0001) >#nTimeSteps = 7200,
(PID.TID 0000.0001) > deltaTmom = 900.0,
(PID.TID 0000.0001) > tauCD =     321428.,
(PID.TID 0000.0001) > deltaTtracer= 43200.0,
(PID.TID 0000.0001) > deltaTClock = 43200.0,
(PID.TID 0000.0001) > abEps = 0.1,
(PID.TID 0000.0001) > pickupStrictlyMatch=.FALSE.,
(PID.TID 0000.0001) > pChkptFreq=311040000.,
(PID.TID 0000.0001) > chkptFreq= 311040000.,
(PID.TID 0000.0001) > dumpFreq=  31104000.,
(PID.TID 0000.0001) > taveFreq=  2592000.,
(PID.TID 0000.0001) >#taveFreq=  31104000.,
(PID.TID 0000.0001) >#monitorFreq= 31104000.,
(PID.TID 0000.0001) > monitorFreq= 43200.0,
(PID.TID 0000.0001) >#monitorFreq= 2592000.,
(PID.TID 0000.0001) > tauThetaClimRelax = 5184000.0,
(PID.TID 0000.0001) > tauSaltClimRelax =  7776000.0,
(PID.TID 0000.0001) > periodicExternalForcing=.TRUE.,
(PID.TID 0000.0001) > externForcingPeriod=2592000.,
(PID.TID 0000.0001) > externForcingCycle=31104000.,
(PID.TID 0000.0001) > /
(PID.TID 0000.0001) >
(PID.TID 0000.0001) ># Gridding parameters
(PID.TID 0000.0001) > &PARM04
(PID.TID 0000.0001) > usingCartesianGrid=.FALSE.,
(PID.TID 0000.0001) > usingSphericalPolarGrid=.TRUE.,
(PID.TID 0000.0001) > delZ= 50., 70., 100., 140., 190.,
(PID.TID 0000.0001) >       240., 290., 340., 390., 440.,
(PID.TID 0000.0001) >       490., 540., 590., 640., 690.,
(PID.TID 0000.0001) > ygOrigin=-90.,
(PID.TID 0000.0001) > delX=128*2.8125,
(PID.TID 0000.0001) > delY=64*2.8125,
(PID.TID 0000.0001) > /
(PID.TID 0000.0001) >
(PID.TID 0000.0001) ># Input datasets
(PID.TID 0000.0001) > &PARM05
(PID.TID 0000.0001) > bathyFile=      '../input/input_ocmip/depth_g77.bin',
(PID.TID 0000.0001) > hydrogThetaFile='../input/input_ocmip/lev_clim_temp.bin',
(PID.TID 0000.0001) > hydrogSaltFile= '../input/input_ocmip/lev_clim_salt.bin',
(PID.TID 0000.0001) > zonalWindFile=  '../input/input_ocmip/tren_taux.bin',
(PID.TID 0000.0001) > meridWindFile=  '../input/input_ocmip/tren_tauy.bin',
(PID.TID 0000.0001) > thetaClimFile=  '../input/input_ocmip/lev_monthly_temp.bin',
(PID.TID 0000.0001) > saltClimFile=   '../input/input_ocmip/lev_monthly_salt.bin',
(PID.TID 0000.0001) > surfQFile=      '../input/input_ocmip/shi_qnet.bin',
(PID.TID 0000.0001) > EmPmRFile=      '../input/input_ocmip/shi_empmr_year.bin',
(PID.TID 0000.0001) > the_run_name=   'Darwin12',
(PID.TID 0000.0001) > /
(PID.TID 0000.0001) 
(PID.TID 0000.0001)  INI_PARMS ; starts to read PARM01
(PID.TID 0000.0001)  INI_PARMS ; read PARM01 : OK
(PID.TID 0000.0001)  INI_PARMS ; starts to read PARM02
(PID.TID 0000.0001)  INI_PARMS ; read PARM02 : OK
(PID.TID 0000.0001)  INI_PARMS ; starts to read PARM03
(PID.TID 0000.0001)  INI_PARMS ; read PARM03 : OK
(PID.TID 0000.0001)  INI_PARMS ; starts to read PARM04
(PID.TID 0000.0001)  INI_PARMS ; read PARM04 : OK
(PID.TID 0000.0001)  INI_PARMS ; starts to read PARM05
(PID.TID 0000.0001)  INI_PARMS ; read PARM05 : OK
(PID.TID 0000.0001)  INI_PARMS: finished reading file "data"
(PID.TID 0000.0001)  PACKAGES_BOOT: opening data.pkg
(PID.TID 0000.0001)  OPEN_COPY_DATA_FILE: opening file data.pkg
(PID.TID 0000.0001) // =======================================================
(PID.TID 0000.0001) // Parameter file "data.pkg"
(PID.TID 0000.0001) // =======================================================
(PID.TID 0000.0001) ># Packages
(PID.TID 0000.0001) > &PACKAGES
(PID.TID 0000.0001) > useGMRedi=.TRUE.
(PID.TID 0000.0001) > usePTRACERS=.TRUE.
(PID.TID 0000.0001) > useGCHEM=.TRUE.,
(PID.TID 0000.0001) > useEXF=.TRUE.,
(PID.TID 0000.0001) > useDIAGNOSTICS=.TRUE.,
(PID.TID 0000.0001) > useMNC=.TRUE.,
(PID.TID 0000.0001) > /
(PID.TID 0000.0001) 
(PID.TID 0000.0001)  PACKAGES_BOOT: finished reading data.pkg
(PID.TID 0000.0001)  MNC_READPARMS: opening file 'data.mnc'
(PID.TID 0000.0001)  OPEN_COPY_DATA_FILE: opening file data.mnc
(PID.TID 0000.0001) // =======================================================
(PID.TID 0000.0001) // Parameter file "data.mnc"
(PID.TID 0000.0001) // =======================================================
(PID.TID 0000.0001) ># Example "data.mnc" file
(PID.TID 0000.0001) ># Lines beginning "#" are comments
(PID.TID 0000.0001) > &MNC_01
(PID.TID 0000.0001) ># mnc_echo_gvtypes=.FALSE.,
(PID.TID 0000.0001) ># mnc_use_indir=.FALSE.,
(PID.TID 0000.0001) ># mnc_use_outdir=.TRUE.,
(PID.TID 0000.0001) > mnc_outdir_str='ocmip_darwin_',
(PID.TID 0000.0001) > mnc_outdir_date=.TRUE.,
(PID.TID 0000.0001) > monitor_mnc=.FALSE.,
(PID.TID 0000.0001) > snapshot_mnc=.TRUE.,
(PID.TID 0000.0001) > timeave_mnc=.TRUE.,
(PID.TID 0000.0001) > pickup_read_mnc=.FALSE.,
(PID.TID 0000.0001) > pickup_write_mnc=.FALSE.,
(PID.TID 0000.0001) > /
(PID.TID 0000.0001) ># Note: Some systems use & as the
(PID.TID 0000.0001) ># namelist terminator. Other systems
(PID.TID 0000.0001) ># use a / character.
(PID.TID 0000.0001) 
(PID.TID 0000.0001)  MNC_READPARMS: finished reading data.mnc
(PID.TID 0000.0001) CAL_READPARMS: opening data.cal
(PID.TID 0000.0001)  OPEN_COPY_DATA_FILE: opening file data.cal
(PID.TID 0000.0001) // =======================================================
(PID.TID 0000.0001) // Parameter file "data.cal"
(PID.TID 0000.0001) // =======================================================
(PID.TID 0000.0001) >#
(PID.TID 0000.0001) ># *******************
(PID.TID 0000.0001) ># Calendar Parameters
(PID.TID 0000.0001) ># *******************
(PID.TID 0000.0001) > &CAL_NML
(PID.TID 0000.0001) > TheCalendar='model',
(PID.TID 0000.0001) > startDate_1=19920101,
(PID.TID 0000.0001) > startDate_2=000000,
(PID.TID 0000.0001) > calendarDumps = .TRUE.
(PID.TID 0000.0001) > /
(PID.TID 0000.0001) 
(PID.TID 0000.0001) CAL_READPARMS: finished reading data.cal
(PID.TID 0000.0001) EXF_READPARMS: opening data.exf
(PID.TID 0000.0001)  OPEN_COPY_DATA_FILE: opening file data.exf
(PID.TID 0000.0001) // =======================================================
(PID.TID 0000.0001) // Parameter file "data.exf"
(PID.TID 0000.0001) // =======================================================
(PID.TID 0000.0001) ># *********************
(PID.TID 0000.0001) ># External Forcing Data
(PID.TID 0000.0001) ># *********************
(PID.TID 0000.0001) >#
(PID.TID 0000.0001) > &EXF_NML_01
(PID.TID 0000.0001) > exf_albedo        = 0.15,
(PID.TID 0000.0001) > exf_iprec         = 32,
(PID.TID 0000.0001) > exf_yftype        = 'RL',
(PID.TID 0000.0001) > useExfYearlyFields= .TRUE.,
(PID.TID 0000.0001) > twoDigitYear      = .TRUE.,
(PID.TID 0000.0001) > useExfCheckRange  = .FALSE.,
(PID.TID 0000.0001) > /
(PID.TID 0000.0001) >#
(PID.TID 0000.0001) > &EXF_NML_02
(PID.TID 0000.0001) > /
(PID.TID 0000.0001) >#
(PID.TID 0000.0001) > &EXF_NML_03
(PID.TID 0000.0001) > /
(PID.TID 0000.0001) >#
(PID.TID 0000.0001) > &EXF_NML_04
(PID.TID 0000.0001) > /
(PID.TID 0000.0001) >#
(PID.TID 0000.0001) > &EXF_NML_OBCS
(PID.TID 0000.0001) > /
(PID.TID 0000.0001) 
(PID.TID 0000.0001) EXF_READPARMS: reading EXF_NML_01
(PID.TID 0000.0001) EXF_READPARMS: reading EXF_NML_02
(PID.TID 0000.0001) EXF_READPARMS: reading EXF_NML_03
(PID.TID 0000.0001) EXF_READPARMS: finished reading data.exf
(PID.TID 0000.0001)  GM_READPARMS: opening data.gmredi
(PID.TID 0000.0001)  OPEN_COPY_DATA_FILE: opening file data.gmredi
(PID.TID 0000.0001) // =======================================================
(PID.TID 0000.0001) // Parameter file "data.gmredi"
(PID.TID 0000.0001) // =======================================================
(PID.TID 0000.0001) ># GM+Redi package parameters:
(PID.TID 0000.0001) >#     GM_Small_Number  :: epsilon used in computing the slope
(PID.TID 0000.0001) >#     GM_slopeSqCutoff :: slope^2 cut-off value
(PID.TID 0000.0001) >
(PID.TID 0000.0001) >#-from MOM :
(PID.TID 0000.0001) ># GM_background_K:      G & Mc.W  diffusion coefficient
(PID.TID 0000.0001) ># GM_maxSlope    :      max slope of isopycnals
(PID.TID 0000.0001) ># GM_Scrit       :      transition for scaling diffusion coefficient
(PID.TID 0000.0001) ># GM_Sd          :      half width scaling for diffusion coefficient
(PID.TID 0000.0001) ># GM_taper_scheme:      slope clipping or one of the tapering schemes
(PID.TID 0000.0001) ># GM_Kmin_horiz  :      horizontal diffusion minimum value
(PID.TID 0000.0001) >
(PID.TID 0000.0001) >#-Option parameters (needs to "define" options in GMREDI_OPTIONS.h")
(PID.TID 0000.0001) ># GM_isopycK     :      isopycnal diffusion coefficient
(PID.TID 0000.0001) >(default=GM_background_K)
(PID.TID 0000.0001) ># GM_AdvForm     :      turn on GM Advective form       (default=Skew flux
(PID.TID 0000.0001) >form)
(PID.TID 0000.0001) >
(PID.TID 0000.0001) > &GM_PARM01
(PID.TID 0000.0001) >  GM_Small_Number    = 1.D-20,
(PID.TID 0000.0001) >  GM_slopeSqCutoff   = 1.D+08,
(PID.TID 0000.0001) >  GM_AdvForm         = .FALSE.,
(PID.TID 0000.0001) >  GM_isopycK         = 1.D+3,
(PID.TID 0000.0001) >  GM_background_K    = 1.D+3,
(PID.TID 0000.0001) >  GM_maxSlope        = 1.D-2,
(PID.TID 0000.0001) >  GM_taper_scheme    = 'dm95',
(PID.TID 0000.0001) >  GM_Kmin_horiz      = 50.,
(PID.TID 0000.0001) >  GM_Scrit           = 4.D-3,
(PID.TID 0000.0001) >  GM_Sd              = 1.D-3,
(PID.TID 0000.0001) >#
(PID.TID 0000.0001) >###  GM_Visbeck_alpha   = 1.5D-2,
(PID.TID 0000.0001) >###  GM_Visbeck_alpha   = 0.D0,
(PID.TID 0000.0001) >###  GM_Visbeck_length  = 2.D+5,
(PID.TID 0000.0001) >###  GM_Visbeck_depth   = 1.D+3,
(PID.TID 0000.0001) >###  GM_Visbeck_maxval_K= 2.5D+3,
(PID.TID 0000.0001) > /
(PID.TID 0000.0001) >
(PID.TID 0000.0001) 
(PID.TID 0000.0001)  GM_READPARMS: finished reading data.gmredi
(PID.TID 0000.0001)  PTRACERS_READPARMS: opening data.ptracers
(PID.TID 0000.0001)  OPEN_COPY_DATA_FILE: opening file data.ptracers
(PID.TID 0000.0001) // =======================================================
(PID.TID 0000.0001) // Parameter file "data.ptracers"
(PID.TID 0000.0001) // =======================================================
(PID.TID 0000.0001) > &PTRACERS_PARM01
(PID.TID 0000.0001) > PTRACERS_numInUse=97,
(PID.TID 0000.0001) > PTRACERS_Iter0= 5644800,
(PID.TID 0000.0001) > PTRACERS_advScheme= 97*33,
(PID.TID 0000.0001) > PTRACERS_diffKh=    97*0.E3,
(PID.TID 0000.0001) > PTRACERS_diffKr=    97*1.E-5,
(PID.TID 0000.0001) > PTRACERS_useGMRedi= 97*.TRUE. ,
(PID.TID 0000.0001) >#
(PID.TID 0000.0001) >       PTRACERS_names(1)= 'DIC',
(PID.TID 0000.0001) >       PTRACERS_names(2)= 'NH4',
(PID.TID 0000.0001) >       PTRACERS_names(3)= 'NO2',
(PID.TID 0000.0001) >       PTRACERS_names(4)= 'NO3',
(PID.TID 0000.0001) >       PTRACERS_names(5)= 'PO4',
(PID.TID 0000.0001) >       PTRACERS_names(6)= 'SiO2',
(PID.TID 0000.0001) >       PTRACERS_names(7)= 'FeT',
(PID.TID 0000.0001) >       PTRACERS_names(8)= 'DOC',
(PID.TID 0000.0001) >       PTRACERS_names(9)= 'DON',
(PID.TID 0000.0001) >       PTRACERS_names(10)= 'DOP',
(PID.TID 0000.0001) >       PTRACERS_names(11)= 'DOFe',
(PID.TID 0000.0001) >       PTRACERS_names(12)= 'POC',
(PID.TID 0000.0001) >       PTRACERS_names(13)= 'PON',
(PID.TID 0000.0001) >       PTRACERS_names(14)= 'POP',
(PID.TID 0000.0001) >       PTRACERS_names(15)= 'POSi',
(PID.TID 0000.0001) >       PTRACERS_names(16)= 'POFe',
(PID.TID 0000.0001) >       PTRACERS_names(17)= 'PIC',
(PID.TID 0000.0001) >       PTRACERS_names(18)= 'c01',
(PID.TID 0000.0001) >       PTRACERS_names(19)= 'c02',
(PID.TID 0000.0001) >       PTRACERS_names(20)= 'c03',
(PID.TID 0000.0001) >       PTRACERS_names(21)= 'c04',
(PID.TID 0000.0001) >       PTRACERS_names(22)= 'c05',
(PID.TID 0000.0001) >       PTRACERS_names(23)= 'c06',
(PID.TID 0000.0001) >       PTRACERS_names(24)= 'c07',
(PID.TID 0000.0001) >       PTRACERS_names(25)= 'c08',
(PID.TID 0000.0001) >       PTRACERS_names(26)= 'c09',
(PID.TID 0000.0001) >       PTRACERS_names(27)= 'c10',
(PID.TID 0000.0001) >       PTRACERS_names(28)= 'c11',
(PID.TID 0000.0001) >       PTRACERS_names(29)= 'c12',
(PID.TID 0000.0001) >       PTRACERS_names(30)= 'c13',
(PID.TID 0000.0001) >       PTRACERS_names(31)= 'c14',
(PID.TID 0000.0001) >       PTRACERS_names(32)= 'c15',
(PID.TID 0000.0001) >       PTRACERS_names(33)= 'c16',
(PID.TID 0000.0001) >       PTRACERS_names(34)= 'c17',
(PID.TID 0000.0001) >       PTRACERS_names(35)= 'c18',
(PID.TID 0000.0001) >       PTRACERS_names(36)= 'c19',
(PID.TID 0000.0001) >       PTRACERS_names(37)= 'c20',
(PID.TID 0000.0001) >       PTRACERS_names(38)= 'c21',
(PID.TID 0000.0001) >       PTRACERS_names(39)= 'c22',
(PID.TID 0000.0001) >       PTRACERS_names(40)= 'c23',
(PID.TID 0000.0001) >       PTRACERS_names(41)= 'c24',
(PID.TID 0000.0001) >       PTRACERS_names(42)= 'c25',
(PID.TID 0000.0001) >       PTRACERS_names(43)= 'c26',
(PID.TID 0000.0001) >       PTRACERS_names(44)= 'c27',
(PID.TID 0000.0001) >       PTRACERS_names(45)= 'c28',
(PID.TID 0000.0001) >       PTRACERS_names(46)= 'c29',
(PID.TID 0000.0001) >       PTRACERS_names(47)= 'c30',
(PID.TID 0000.0001) >       PTRACERS_names(48)= 'c31',
(PID.TID 0000.0001) >       PTRACERS_names(49)= 'c32',
(PID.TID 0000.0001) >       PTRACERS_names(50)= 'c33',
(PID.TID 0000.0001) >       PTRACERS_names(51)= 'c34',
(PID.TID 0000.0001) >       PTRACERS_names(52)= 'c35',
(PID.TID 0000.0001) >       PTRACERS_names(53)= 'c36',
(PID.TID 0000.0001) >       PTRACERS_names(54)= 'c37',
(PID.TID 0000.0001) >       PTRACERS_names(55)= 'c38',
(PID.TID 0000.0001) >       PTRACERS_names(56)= 'c39',
(PID.TID 0000.0001) >       PTRACERS_names(57)= 'c40',
(PID.TID 0000.0001) >       PTRACERS_names(58)= 'c41',
(PID.TID 0000.0001) >       PTRACERS_names(59)= 'c42',
(PID.TID 0000.0001) >       PTRACERS_names(60)= 'c43',
(PID.TID 0000.0001) >       PTRACERS_names(61)= 'c44',
(PID.TID 0000.0001) >       PTRACERS_names(62)= 'c45',
(PID.TID 0000.0001) >       PTRACERS_names(63)= 'c46',
(PID.TID 0000.0001) >       PTRACERS_names(64)= 'c47',
(PID.TID 0000.0001) >       PTRACERS_names(65)= 'c48',
(PID.TID 0000.0001) >       PTRACERS_names(66)= 'c49',
(PID.TID 0000.0001) >       PTRACERS_names(67)= 'c50',
(PID.TID 0000.0001) >       PTRACERS_names(68)= 'c51',
(PID.TID 0000.0001) >       PTRACERS_names(69)= 'c52',
(PID.TID 0000.0001) >       PTRACERS_names(70)= 'c53',
(PID.TID 0000.0001) >       PTRACERS_names(71)= 'c54',
(PID.TID 0000.0001) >       PTRACERS_names(72)= 'c55',
(PID.TID 0000.0001) >       PTRACERS_names(73)= 'c56',
(PID.TID 0000.0001) >       PTRACERS_names(74)= 'c57',
(PID.TID 0000.0001) >       PTRACERS_names(75)= 'c58',
(PID.TID 0000.0001) >       PTRACERS_names(76)= 'c59',
(PID.TID 0000.0001) >       PTRACERS_names(77)= 'c60',
(PID.TID 0000.0001) >       PTRACERS_names(78)= 'c61',
(PID.TID 0000.0001) >       PTRACERS_names(79)= 'c62',
(PID.TID 0000.0001) >       PTRACERS_names(80)= 'c63',
(PID.TID 0000.0001) >       PTRACERS_names(81)= 'c64',
(PID.TID 0000.0001) >       PTRACERS_names(82)= 'c65',
(PID.TID 0000.0001) >       PTRACERS_names(83)= 'c66',
(PID.TID 0000.0001) >       PTRACERS_names(84)= 'c67',
(PID.TID 0000.0001) >       PTRACERS_names(85)= 'c68',
(PID.TID 0000.0001) >       PTRACERS_names(86)= 'c69',
(PID.TID 0000.0001) >       PTRACERS_names(87)= 'c70',
(PID.TID 0000.0001) >       PTRACERS_names(88)= 'c71',
(PID.TID 0000.0001) >       PTRACERS_names(89)= 'c72',
(PID.TID 0000.0001) >       PTRACERS_names(90)= 'c73',
(PID.TID 0000.0001) >       PTRACERS_names(91)= 'c74',
(PID.TID 0000.0001) >       PTRACERS_names(92)= 'c75',
(PID.TID 0000.0001) >       PTRACERS_names(93)= 'c76',
(PID.TID 0000.0001) >       PTRACERS_names(94)= 'c77',
(PID.TID 0000.0001) >       PTRACERS_names(95)= 'c78',
(PID.TID 0000.0001) > PTRACERS_names(96)= 'zc1',
(PID.TID 0000.0001) > PTRACERS_names(97)= 'zc2',
(PID.TID 0000.0001) >#
(PID.TID 0000.0001) > PTRACERS_units(1)='mmol C/m^3'
(PID.TID 0000.0001) > PTRACERS_units(2)='mmol N/m^3'
(PID.TID 0000.0001) > PTRACERS_units(3)='mmol N/m^3'
(PID.TID 0000.0001) > PTRACERS_units(4)='mmol N/m^3'
(PID.TID 0000.0001) > PTRACERS_units(5)='mmol P/m^3'
(PID.TID 0000.0001) > PTRACERS_units(6)='mmol Si/m^3'
(PID.TID 0000.0001) > PTRACERS_units(7)='mmol Fe/m^3'
(PID.TID 0000.0001) > PTRACERS_units(8)='mmol C/m^3'
(PID.TID 0000.0001) > PTRACERS_units(9)='mmol N/m^3'
(PID.TID 0000.0001) > PTRACERS_units(10)='mmol P/m^3'
(PID.TID 0000.0001) > PTRACERS_units(11)='mmol Fe/m^3'
(PID.TID 0000.0001) > PTRACERS_units(12)='mmol C/m^3'
(PID.TID 0000.0001) > PTRACERS_units(13)='mmol N/m^3'
(PID.TID 0000.0001) > PTRACERS_units(14)='mmol P/m^3'
(PID.TID 0000.0001) > PTRACERS_units(15)='mmol Si/m^3'
(PID.TID 0000.0001) > PTRACERS_units(16)='mmol Fe/m^3'
(PID.TID 0000.0001) > PTRACERS_units(17)='mmol C/m^3'
(PID.TID 0000.0001) > PTRACERS_units(18:97)=80*'mmol C/m^3'
(PID.TID 0000.0001) >#
(PID.TID 0000.0001) > PTRACERS_ref(1:15,   1)= 15*2e3,
(PID.TID 0000.0001) > PTRACERS_initialFile(2)='../input/input_ocmip/nh4_run1_ocmip.bin',
(PID.TID 0000.0001) > PTRACERS_initialFile(3)='../input/input_ocmip/no2_run1_ocmip.bin',
(PID.TID 0000.0001) > PTRACERS_initialFile(4)='../input/input_ocmip/no3_uM.bin',
(PID.TID 0000.0001) > PTRACERS_initialFile(5)='../input/input_ocmip/po4_uM.bin',
(PID.TID 0000.0001) > PTRACERS_initialFile(6)='../input/input_ocmip/sio2_uM.bin',
(PID.TID 0000.0001) > PTRACERS_initialFile(7)='../input/input_ocmip/fet_run136.bin',
(PID.TID 0000.0001) > PTRACERS_ref(1:15,   8)= 15*0e0,
(PID.TID 0000.0001) > PTRACERS_initialFile(9)='../input/input_ocmip/don_init.bin',
(PID.TID 0000.0001) > PTRACERS_initialFile(10)='../input/input_ocmip/dop_run136.bin',
(PID.TID 0000.0001) > PTRACERS_initialFile(11)='../input/input_ocmip/dof_run136.bin',
(PID.TID 0000.0001) > PTRACERS_ref(1:15,   12)= 15*0e0,
(PID.TID 0000.0001) > PTRACERS_initialFile(13)='../input/input_ocmip/pon_init.bin',
(PID.TID 0000.0001) > PTRACERS_initialFile(14)='../input/input_ocmip/pop_run136.bin',
(PID.TID 0000.0001) > PTRACERS_initialFile(15)='../input/input_ocmip/pos_run136.bin',
(PID.TID 0000.0001) > PTRACERS_initialFile(16)='../input/input_ocmip/pof_run136.bin',
(PID.TID 0000.0001) > PTRACERS_ref(1:15,   17)= 15*0e0,
(PID.TID 0000.0001) > PTRACERS_initialFile(18:95)=78*'../input/input_ocmip/seawifs_chl_p78.bin',
(PID.TID 0000.0001) > PTRACERS_initialFile(96)='../input/input_ocmip/seawifs_zoo_p2.bin',
(PID.TID 0000.0001) > PTRACERS_initialFile(97)='../input/input_ocmip/seawifs_zoo_p2.bin',
(PID.TID 0000.0001) > /
(PID.TID 0000.0001) 
(PID.TID 0000.0001)  PTRACERS_READPARMS: finished reading data.ptracers
(PID.TID 0000.0001)  GCHEM_READPARMS: opening data.gchem
(PID.TID 0000.0001)  OPEN_COPY_DATA_FILE: opening file data.gchem
(PID.TID 0000.0001) // =======================================================
(PID.TID 0000.0001) // Parameter file "data.gchem"
(PID.TID 0000.0001) // =======================================================
(PID.TID 0000.0001) > &GCHEM_PARM01
(PID.TID 0000.0001) > useDARWIN=.TRUE.,
(PID.TID 0000.0001) > nsubtime=4,
(PID.TID 0000.0001) > /
(PID.TID 0000.0001) 
(PID.TID 0000.0001)  GCHEM_READPARMS: finished reading data.gchem
(PID.TID 0000.0001)  DARWIN_READPARMS: opening data.darwin
(PID.TID 0000.0001)  OPEN_COPY_DATA_FILE: opening file data.darwin
(PID.TID 0000.0001) // =======================================================
(PID.TID 0000.0001) // Parameter file "data.darwin"
(PID.TID 0000.0001) // =======================================================
(PID.TID 0000.0001) > &DARWIN_FORCING_PARAMS
(PID.TID 0000.0001) > iceFile='../input/input_ocmip/fice.bin',
(PID.TID 0000.0001) > ironFile='../input/input_ocmip/mah_flux_smooth.bin',
(PID.TID 0000.0001) > PARFile='../input/input_ocmip/par_ocmip.bin_mth-2d.bin',
(PID.TID 0000.0001) > icePeriod= -12.,
(PID.TID 0000.0001) > ironPeriod= -12.,
(PID.TID 0000.0001) > PARPeriod= -12.,
(PID.TID 0000.0001) > darwin_inscal_iron= 1000.,
(PID.TID 0000.0001) > darwin_inscal_PAR= 11.574074074074,
(PID.TID 0000.0001) > /
(PID.TID 0000.0001) > &DARWIN_PARAMS
(PID.TID 0000.0001) > darwin_seed=801,
(PID.TID 0000.0001) > darwin_read_phos=T,
(PID.TID 0000.0001) > PARmin=1.0,
(PID.TID 0000.0001) > /
(PID.TID 0000.0001) > &DARWIN_TRAIT_PARAMS
(PID.TID 0000.0001) > /
(PID.TID 0000.0001) > &DARWIN_ALLOMETRIC_PARAMS
(PID.TID 0000.0001) > /
(PID.TID 0000.0001) > &DARWIN_TRAITS
(PID.TID 0000.0001) > /
(PID.TID 0000.0001) 
(PID.TID 0000.0001) QQ random port_rand              801   0.7787879999999999
(PID.TID 0000.0001)  ===================================
(PID.TID 0000.0001)  DIAGNOSTICS_READPARMS: opening data.diagnostics
(PID.TID 0000.0001)  OPEN_COPY_DATA_FILE: opening file data.diagnostics
(PID.TID 0000.0001) // =======================================================
(PID.TID 0000.0001) // Parameter file "data.diagnostics"
(PID.TID 0000.0001) // =======================================================
(PID.TID 0000.0001) > &diagnostics_list
(PID.TID 0000.0001) > filename(1)= 'darwin',
(PID.TID 0000.0001) > frequency(1)= 43200.,
(PID.TID 0000.0001) > fields(1,1)= 'TRAC01  ',
(PID.TID 0000.0001) > fields(2,1)= 'TRAC02  ',
(PID.TID 0000.0001) > fields(3,1)= 'TRAC03  ',
(PID.TID 0000.0001) > fields(4,1)= 'TRAC04  ',
(PID.TID 0000.0001) > fields(5,1)= 'TRAC05  ',
(PID.TID 0000.0001) > fields(6,1)= 'TRAC06  ',
(PID.TID 0000.0001) > fields(7,1)= 'TRAC07  ',
(PID.TID 0000.0001) > fields(8,1)= 'TRAC08  ',
(PID.TID 0000.0001) > fields(9,1)= 'TRAC09  ',
(PID.TID 0000.0001) > fields(10,1)= 'TRAC10  ',
(PID.TID 0000.0001) > fields(11,1)= 'TRAC11  ',
(PID.TID 0000.0001) > fields(12,1)= 'TRAC12  ',
(PID.TID 0000.0001) > fields(13,1)= 'TRAC13  ',
(PID.TID 0000.0001) > fields(14,1)= 'TRAC14  ',
(PID.TID 0000.0001) > fields(15,1)= 'TRAC15  ',
(PID.TID 0000.0001) > fields(16,1)= 'TRAC16  ',
(PID.TID 0000.0001) > fields(17,1)= 'TRAC17  ',
(PID.TID 0000.0001) > fields(18,1)= 'TRAC18  ',
(PID.TID 0000.0001) > fields(19,1)= 'TRAC19  ',
(PID.TID 0000.0001) > fields(20,1)= 'TRAC20  ',
(PID.TID 0000.0001) > fields(21,1)= 'TRAC21  ',
(PID.TID 0000.0001) > fields(22,1)= 'TRAC22  ',
(PID.TID 0000.0001) > fields(23,1)= 'TRAC23  ',
(PID.TID 0000.0001) > fields(24,1)= 'TRAC24  ',
(PID.TID 0000.0001) > fields(25,1)= 'TRAC25  ',
(PID.TID 0000.0001) > fields(26,1)= 'TRAC26  ',
(PID.TID 0000.0001) > fields(27,1)= 'TRAC27  ',
(PID.TID 0000.0001) > fields(28,1)= 'TRAC28  ',
(PID.TID 0000.0001) > fields(29,1)= 'TRAC29  ',
(PID.TID 0000.0001) > fields(30,1)= 'TRAC30  ',
(PID.TID 0000.0001) > fields(31,1)= 'TRAC31  ',
(PID.TID 0000.0001) > fields(32,1)= 'TRAC32  ',
(PID.TID 0000.0001) > fields(33,1)= 'TRAC33  ',
(PID.TID 0000.0001) > fields(34,1)= 'TRAC34  ',
(PID.TID 0000.0001) > fields(35,1)= 'TRAC35  ',
(PID.TID 0000.0001) > fields(36,1)= 'TRAC36  ',
(PID.TID 0000.0001) > fields(37,1)= 'TRAC37  ',
(PID.TID 0000.0001) > fields(38,1)= 'TRAC38  ',
(PID.TID 0000.0001) > fields(39,1)= 'TRAC39  ',
(PID.TID 0000.0001) > fields(40,1)= 'TRAC40  ',
(PID.TID 0000.0001) > fields(41,1)= 'TRAC41  ',
(PID.TID 0000.0001) > fields(42,1)= 'TRAC42  ',
(PID.TID 0000.0001) > fields(43,1)= 'TRAC43  ',
(PID.TID 0000.0001) > fields(44,1)= 'TRAC44  ',
(PID.TID 0000.0001) > fields(45,1)= 'TRAC45  ',
(PID.TID 0000.0001) > fields(46,1)= 'TRAC46  ',
(PID.TID 0000.0001) > fields(47,1)= 'TRAC47  ',
(PID.TID 0000.0001) > fields(48,1)= 'TRAC48  ',
(PID.TID 0000.0001) > fields(49,1)= 'TRAC49  ',
(PID.TID 0000.0001) > fields(50,1)= 'TRAC50  ',
(PID.TID 0000.0001) > fields(51,1)= 'TRAC51  ',
(PID.TID 0000.0001) > fields(52,1)= 'TRAC52  ',
(PID.TID 0000.0001) > fields(53,1)= 'TRAC53  ',
(PID.TID 0000.0001) > fields(54,1)= 'TRAC54  ',
(PID.TID 0000.0001) > fields(55,1)= 'TRAC55  ',
(PID.TID 0000.0001) > fields(56,1)= 'TRAC56  ',
(PID.TID 0000.0001) > fields(57,1)= 'TRAC57  ',
(PID.TID 0000.0001) > fields(58,1)= 'TRAC58  ',
(PID.TID 0000.0001) > fields(59,1)= 'TRAC59  ',
(PID.TID 0000.0001) > fields(60,1)= 'TRAC60  ',
(PID.TID 0000.0001) > fields(61,1)= 'TRAC61  ',
(PID.TID 0000.0001) > fields(62,1)= 'TRAC62  ',
(PID.TID 0000.0001) > fields(63,1)= 'TRAC63  ',
(PID.TID 0000.0001) > fields(64,1)= 'TRAC64  ',
(PID.TID 0000.0001) > fields(65,1)= 'TRAC65  ',
(PID.TID 0000.0001) > fields(66,1)= 'TRAC66  ',
(PID.TID 0000.0001) > fields(67,1)= 'TRAC67  ',
(PID.TID 0000.0001) > fields(68,1)= 'TRAC68  ',
(PID.TID 0000.0001) > fields(69,1)= 'TRAC69  ',
(PID.TID 0000.0001) > fields(70,1)= 'TRAC70  ',
(PID.TID 0000.0001) > fields(71,1)= 'TRAC71  ',
(PID.TID 0000.0001) > fields(72,1)= 'TRAC72  ',
(PID.TID 0000.0001) > fields(73,1)= 'TRAC73  ',
(PID.TID 0000.0001) > fields(74,1)= 'TRAC74  ',
(PID.TID 0000.0001) > fields(75,1)= 'TRAC75  ',
(PID.TID 0000.0001) > fields(76,1)= 'TRAC76  ',
(PID.TID 0000.0001) > fields(77,1)= 'TRAC77  ',
(PID.TID 0000.0001) > fields(78,1)= 'TRAC78  ',
(PID.TID 0000.0001) > fields(79,1)= 'TRAC79  ',
(PID.TID 0000.0001) > fields(80,1)= 'TRAC80  ',
(PID.TID 0000.0001) > fields(81,1)= 'TRAC81  ',
(PID.TID 0000.0001) > fields(82,1)= 'TRAC82  ',
(PID.TID 0000.0001) > fields(83,1)= 'TRAC83  ',
(PID.TID 0000.0001) > fields(84,1)= 'TRAC84  ',
(PID.TID 0000.0001) > fields(85,1)= 'TRAC85  ',
(PID.TID 0000.0001) > fields(86,1)= 'TRAC86  ',
(PID.TID 0000.0001) > fields(87,1)= 'TRAC87  ',
(PID.TID 0000.0001) > fields(88,1)= 'TRAC88  ',
(PID.TID 0000.0001) > fields(89,1)= 'TRAC89  ',
(PID.TID 0000.0001) > fields(90,1)= 'TRAC90  ',
(PID.TID 0000.0001) > fields(91,1)= 'TRAC91  ',
(PID.TID 0000.0001) > fields(92,1)= 'TRAC92  ',
(PID.TID 0000.0001) > fields(93,1)= 'TRAC93  ',
(PID.TID 0000.0001) > fields(94,1)= 'TRAC94  ',
(PID.TID 0000.0001) > fields(95,1)= 'TRAC95  ',
(PID.TID 0000.0001) > fields(96,1)= 'TRAC96  ',
(PID.TID 0000.0001) > fields(97,1)= 'TRAC97  ',
(PID.TID 0000.0001) > fields(98,1)= 'PAR01   ',
(PID.TID 0000.0001) > fields(99,1)= 'DIC_c01 ',
(PID.TID 0000.0001) > fields(100,1)= 'DIC_c02 ',
(PID.TID 0000.0001) > fields(101,1)= 'c01_DOC ',
(PID.TID 0000.0001) > fields(102,1)= 'c02_DOC ',
(PID.TID 0000.0001) > fields(103,1)= 'c01_POC ',
(PID.TID 0000.0001) > fields(104,1)= 'c02_POC ',
(PID.TID 0000.0001) > fields(105,1)= 'PARF    ',
(PID.TID 0000.0001) > fields(106,1)= 'atten   ',
(PID.TID 0000.0001) > fields(107,1)= 'surfPAR ',
(PID.TID 0000.0001) > fields(108,1)= 'exfPAR  ',
(PID.TID 0000.0001) > fields(109,1)= 'limn01  ',
(PID.TID 0000.0001) > fields(110,1)= 'limp01  ',
(PID.TID 0000.0001) > fields(111,1)= 'limsi01 ',
(PID.TID 0000.0001) > fields(112,1)= 'limfe01 ',
(PID.TID 0000.0001) > fields(113,1)= 'limI01  ',
(PID.TID 0000.0001) > fields(114,1)= 'limT01  ',
(PID.TID 0000.0001) > fields(115,1)= 'c01_c   ',
(PID.TID 0000.0001) > fields(116,1)= 'c02_c   ',
(PID.TID 0000.0001) > fields(117,1)= 'c_c03   ',
(PID.TID 0000.0001) > fields(118,1)= 'c_c04   ',
(PID.TID 0000.0001) > fields(119,1)= 'c_DOC   ',
(PID.TID 0000.0001) > fields(120,1)= 'c_POC   ',
(PID.TID 0000.0001) > fields(121,1)= 'c_PIC   ',
(PID.TID 0000.0001) > fields(122,1)= 'n_DON   ',
(PID.TID 0000.0001) > fields(123,1)= 'n_PON   ',
(PID.TID 0000.0001) > fields(124,1)= 'p_DOP   ',
(PID.TID 0000.0001) > fields(125,1)= 'p_POP   ',
(PID.TID 0000.0001) > /
(PID.TID 0000.0001) > &diag_statis_parms
(PID.TID 0000.0001) > /
(PID.TID 0000.0001) 
(PID.TID 0000.0001) S/R DIAGNOSTICS_READPARMS, read namelist "diagnostics_list": start
(PID.TID 0000.0001) S/R DIAGNOSTICS_READPARMS, read namelist "diagnostics_list": OK
(PID.TID 0000.0001) S/R DIAGNOSTICS_READPARMS, read namelist "DIAG_STATIS_PARMS": start
(PID.TID 0000.0001) S/R DIAGNOSTICS_READPARMS, read namelist "DIAG_STATIS_PARMS": OK
(PID.TID 0000.0001)  DIAGNOSTICS_READPARMS: global parameter summary:
(PID.TID 0000.0001)  dumpAtLast = /* always write time-ave diags at the end */
(PID.TID 0000.0001)                   F
(PID.TID 0000.0001)     ;
(PID.TID 0000.0001)  diag_mnc =   /* write NetCDF output files */
(PID.TID 0000.0001)                   T
(PID.TID 0000.0001)     ;
(PID.TID 0000.0001)  useMissingValue = /* put MissingValue where mask = 0 */
(PID.TID 0000.0001)                   F
(PID.TID 0000.0001)     ;
(PID.TID 0000.0001)  diagCG_maxIters = /* max number of iters in diag_cg2d */
(PID.TID 0000.0001)                    1000
(PID.TID 0000.0001)     ;
(PID.TID 0000.0001)  diagCG_resTarget = /* residual target for diag_cg2d */
(PID.TID 0000.0001)                 1.000000000000000E-13
(PID.TID 0000.0001)     ;
(PID.TID 0000.0001) -----------------------------------------------------
(PID.TID 0000.0001)  DIAGNOSTICS_READPARMS: active diagnostics summary:
(PID.TID 0000.0001) -----------------------------------------------------
(PID.TID 0000.0001) Creating Output Stream: darwin
(PID.TID 0000.0001) Output Frequency:      43200.000000 ; Phase:           0.000000
(PID.TID 0000.0001)  Averaging Freq.:      43200.000000 , Phase:           0.000000 , Cycle:   1
(PID.TID 0000.0001)  missing value:  1.234567000000E+05 ; for integers:   123456789
(PID.TID 0000.0001)  Levels:    will be set later
(PID.TID 0000.0001)  Fields:    TRAC01   TRAC02   TRAC03   TRAC04   TRAC05   TRAC06   TRAC07   TRAC08   TRAC09   TRAC10
(PID.TID 0000.0001)  Fields:    TRAC11   TRAC12   TRAC13   TRAC14   TRAC15   TRAC16   TRAC17   TRAC18   TRAC19   TRAC20
(PID.TID 0000.0001)  Fields:    TRAC21   TRAC22   TRAC23   TRAC24   TRAC25   TRAC26   TRAC27   TRAC28   TRAC29   TRAC30
(PID.TID 0000.0001)  Fields:    TRAC31   TRAC32   TRAC33   TRAC34   TRAC35   TRAC36   TRAC37   TRAC38   TRAC39   TRAC40
(PID.TID 0000.0001)  Fields:    TRAC41   TRAC42   TRAC43   TRAC44   TRAC45   TRAC46   TRAC47   TRAC48   TRAC49   TRAC50
(PID.TID 0000.0001)  Fields:    TRAC51   TRAC52   TRAC53   TRAC54   TRAC55   TRAC56   TRAC57   TRAC58   TRAC59   TRAC60
(PID.TID 0000.0001)  Fields:    TRAC61   TRAC62   TRAC63   TRAC64   TRAC65   TRAC66   TRAC67   TRAC68   TRAC69   TRAC70
(PID.TID 0000.0001)  Fields:    TRAC71   TRAC72   TRAC73   TRAC74   TRAC75   TRAC76   TRAC77   TRAC78   TRAC79   TRAC80
(PID.TID 0000.0001)  Fields:    TRAC81   TRAC82   TRAC83   TRAC84   TRAC85   TRAC86   TRAC87   TRAC88   TRAC89   TRAC90
(PID.TID 0000.0001)  Fields:    TRAC91   TRAC92   TRAC93   TRAC94   TRAC95   TRAC96   TRAC97   PAR01    DIC_c01  DIC_c02
(PID.TID 0000.0001)  Fields:    c01_DOC  c02_DOC  c01_POC  c02_POC  PARF     atten    surfPAR  exfPAR   limn01   limp01
(PID.TID 0000.0001)  Fields:    limsi01  limfe01  limI01   limT01   c01_c    c02_c    c_c03    c_c04    c_DOC    c_POC
(PID.TID 0000.0001)  Fields:    c_PIC    n_DON    n_PON    p_DOP    p_POP
(PID.TID 0000.0001) -----------------------------------------------------
(PID.TID 0000.0001)  DIAGNOSTICS_READPARMS: statistics diags. summary:
(PID.TID 0000.0001) -----------------------------------------------------
(PID.TID 0000.0001) 
(PID.TID 0000.0001) SET_PARMS: done
(PID.TID 0000.0001) Enter INI_VERTICAL_GRID: setInterFDr=    T ; setCenterDr=    F
(PID.TID 0000.0001) %MON XC_max                       =   3.5859375000000000E+02
(PID.TID 0000.0001) %MON XC_min                       =   1.4062500000000000E+00
(PID.TID 0000.0001) %MON XC_mean                      =   1.8000000000000000E+02
(PID.TID 0000.0001) %MON XC_sd                        =   1.0391987692598804E+02
(PID.TID 0000.0001) %MON XG_max                       =   3.5718750000000000E+02
(PID.TID 0000.0001) %MON XG_min                       =   0.0000000000000000E+00
(PID.TID 0000.0001) %MON XG_mean                      =   1.7859375000000000E+02
(PID.TID 0000.0001) %MON XG_sd                        =   1.0391987692598804E+02
(PID.TID 0000.0001) %MON DXC_max                      =   3.1259246843154915E+05
(PID.TID 0000.0001) %MON DXC_min                      =   7.6737143816222988E+03
(PID.TID 0000.0001) %MON DXC_mean                     =   1.9908248704233844E+05
(PID.TID 0000.0001) %MON DXC_sd                       =   9.6190602240066684E+04
(PID.TID 0000.0001) %MON DXF_max                      =   3.1259246843154915E+05
(PID.TID 0000.0001) %MON DXF_min                      =   7.6737143816222988E+03
(PID.TID 0000.0001) %MON DXF_mean                     =   1.9908248704233844E+05
(PID.TID 0000.0001) %MON DXF_sd                       =   9.6190602240066684E+04
(PID.TID 0000.0001) %MON DXG_max                      =   3.1268664380260912E+05
(PID.TID 0000.0001) %MON DXG_min                      =   0.0000000000000000E+00
(PID.TID 0000.0001) %MON DXG_mean                     =   1.9902252711932667E+05
(PID.TID 0000.0001) %MON DXG_sd                       =   9.6314600686012433E+04
(PID.TID 0000.0001) %MON DXV_max                      =   3.1268664380260912E+05
(PID.TID 0000.0001) %MON DXV_min                      =   0.0000000000000000E+00
(PID.TID 0000.0001) %MON DXV_mean                     =   1.9902252711932667E+05
(PID.TID 0000.0001) %MON DXV_sd                       =   9.6314600686012433E+04
(PID.TID 0000.0001) %MON YC_max                       =   8.8593750000000000E+01
(PID.TID 0000.0001) %MON YC_min                       =  -8.8593750000000000E+01
(PID.TID 0000.0001) %MON YC_mean                      =   0.0000000000000000E+00
(PID.TID 0000.0001) %MON YC_sd                        =   5.1955180880375153E+01
(PID.TID 0000.0001) %MON YG_max                       =   8.7187500000000000E+01
(PID.TID 0000.0001) %MON YG_min                       =  -9.0000000000000000E+01
(PID.TID 0000.0001) %MON YG_mean                      =  -1.4062500000000000E+00
(PID.TID 0000.0001) %MON YG_sd                        =   5.1955180880375153E+01
(PID.TID 0000.0001) %MON DYC_max                      =   3.1268664380260912E+05
(PID.TID 0000.0001) %MON DYC_min                      =   3.1268664380260912E+05
(PID.TID 0000.0001) %MON DYC_mean                     =   3.1268664380262379E+05
(PID.TID 0000.0001) %MON DYC_sd                       =   1.4668330550193787E-08
(PID.TID 0000.0001) %MON DYF_max                      =   3.1268664380260912E+05
(PID.TID 0000.0001) %MON DYF_min                      =   3.1268664380260912E+05
(PID.TID 0000.0001) %MON DYF_mean                     =   3.1268664380262379E+05
(PID.TID 0000.0001) %MON DYF_sd                       =   1.4668330550193787E-08
(PID.TID 0000.0001) %MON DYG_max                      =   3.1268664380260912E+05
(PID.TID 0000.0001) %MON DYG_min                      =   3.1268664380260912E+05
(PID.TID 0000.0001) %MON DYG_mean                     =   3.1268664380262379E+05
(PID.TID 0000.0001) %MON DYG_sd                       =   1.4668330550193787E-08
(PID.TID 0000.0001) %MON DYU_max                      =   3.1268664380260912E+05
(PID.TID 0000.0001) %MON DYU_min                      =   3.1268664380260912E+05
(PID.TID 0000.0001) %MON DYU_mean                     =   3.1268664380262379E+05
(PID.TID 0000.0001) %MON DYU_sd                       =   1.4668330550193787E-08
(PID.TID 0000.0001) %MON RA_max                       =   9.7733676797555420E+10
(PID.TID 0000.0001) %MON RA_min                       =   2.3992270990190182E+09
(PID.TID 0000.0001) %MON RA_mean                      =   6.2244185031957382E+10
(PID.TID 0000.0001) %MON RA_sd                        =   3.0074496923945278E+10
(PID.TID 0000.0001) %MON RAW_max                      =   9.7733676797555420E+10
(PID.TID 0000.0001) %MON RAW_min                      =   2.3992270990190182E+09
(PID.TID 0000.0001) %MON RAW_mean                     =   6.2244185031957382E+10
(PID.TID 0000.0001) %MON RAW_sd                       =   3.0074496923945278E+10
(PID.TID 0000.0001) %MON RAS_max                      =   9.7763121221868164E+10
(PID.TID 0000.0001) %MON RAS_min                      =   0.0000000000000000E+00
(PID.TID 0000.0001) %MON RAS_mean                     =   6.2225438247156563E+10
(PID.TID 0000.0001) %MON RAS_sd                       =   3.0113265689232788E+10
(PID.TID 0000.0001) %MON RAZ_max                      =   9.7763121221868164E+10
(PID.TID 0000.0001) %MON RAZ_min                      =   0.0000000000000000E+00
(PID.TID 0000.0001) %MON RAZ_mean                     =   6.2225438247156563E+10
(PID.TID 0000.0001) %MON RAZ_sd                       =   3.0113265689232788E+10
(PID.TID 0000.0001) %MON AngleCS_max                  =   1.0000000000000000E+00
(PID.TID 0000.0001) %MON AngleCS_min                  =   1.0000000000000000E+00
(PID.TID 0000.0001) %MON AngleCS_mean                 =   1.0000000000000000E+00
(PID.TID 0000.0001) %MON AngleCS_sd                   =   0.0000000000000000E+00
(PID.TID 0000.0001) %MON AngleSN_max                  =   0.0000000000000000E+00
(PID.TID 0000.0001) %MON AngleSN_min                  =   0.0000000000000000E+00
(PID.TID 0000.0001) %MON AngleSN_mean                 =   0.0000000000000000E+00
(PID.TID 0000.0001) %MON AngleSN_sd                   =   0.0000000000000000E+00
(PID.TID 0000.0001)  MDS_READ_FIELD: opening global file: ../input/input_ocmip/depth_g77.bin
(PID.TID 0000.0001) // =======================================================
(PID.TID 0000.0001) // Field Model R_low (ini_masks_etc)
(PID.TID 0000.0001) // CMIN =         -5.200000000000000E+03
(PID.TID 0000.0001) // CMAX =         -5.000000000000000E+01
(PID.TID 0000.0001) // CINT =          1.907407407407407E+02
(PID.TID 0000.0001) // SYMBOLS (CMIN->CMAX): -abcdefghijklmnopqrstuvwxyz+
(PID.TID 0000.0001) //                  0.0: .
(PID.TID 0000.0001) // RANGE I (Lo:Hi:Step):(    -3:   132:     1)
(PID.TID 0000.0001) // RANGE J (Lo:Hi:Step):(    68:    -3:    -1)
(PID.TID 0000.0001) // RANGE K (Lo:Hi:Step):(   1:   1:   1)
(PID.TID 0000.0001) // =======================================================
(PID.TID 0000.0001) K =   1
(PID.TID 0000.0001) //                I=6       I=16      I=26      I=36      I=46      I=56      I=66      I=68      I=78      I=88      I=98      I=108     I=118     I=128
(PID.TID 0000.0001) // |--J--|321012345|789012345|789012345|789012345|789012345|789012345|789012345|781234567|901234567|901234567|901234567|901234567|901234567|901234567|9012
(PID.TID 0000.0001) //     68 ................................................................................................................................................
(PID.TID 0000.0001) //     67 ................................................................................................................................................
(PID.TID 0000.0001) //     66 ................................................................................................................................................
(PID.TID 0000.0001) //     65 ................................................................................................................................................
(PID.TID 0000.0001) //     64 ................................................................................................................................................
(PID.TID 0000.0001) //     63 ................................................................................................................................................
(PID.TID 0000.0001) //     62 ................................................................................................................................................
(PID.TID 0000.0001) //     61 +zvoovxyyy...+zzzzz+++++...............................................................................................................++zvoovxy
(PID.TID 0000.0001) //     60 +yvmmorw.....+++++zzzzz+.........................................................................................+....................zz+yvmmorw
(PID.TID 0000.0001) //     59 ojjjmmooty++zzzzzzzzzz+.........................................................................................+xwwwyz..............+ztojjjmmoo
(PID.TID 0000.0001) //     58 troommmorxzz+++zzzzz++.............................................................................................wttyz............+yvttroommmo
(PID.TID 0000.0001) //     57 vrmmmmmrv............................................................................................................xxz............xwvvvrmmmmmr
(PID.TID 0000.0001) //     56 vrjjrvyz..............................................................................................................zy........yyzxx..zvrjjrvyz
(PID.TID 0000.0001) //     55 ywrrvy..............................................................++......++.......................................+yvv.....vrrtxyyzyyywrrvy..
(PID.TID 0000.0001) //     54 xzz++............................................................vtt++++.vtt++++......................................yommv..vmmrvtoortwxzz++...
(PID.TID 0000.0001) //     53 y...++.................................................++++...wvtjggmrz+tjggmrz+++....xojmt...........................+tmjjmmmmrtoootwyxy...++..
(PID.TID 0000.0001) //     52 ....++................................................+zyyy...rrojjrmjjtojjrmjjt+.yvrjjjjjjr............................wtjjjjmrommmtvtt....++..
(PID.TID 0000.0001) //     51 .......................................................zvvx..ggjjmotvoomjmotvoomjdddddgggjjjrz..........................+yrjjjjjmmjjmmry........
(PID.TID 0000.0001) //     50 y+.....................................................+vvxyd--ggdd-----gdd-------ddddddgggjmox..........................+yrogggjmmggggty+......
(PID.TID 0000.0001) //     49 gj+....................................................+vvmd----g-------g--------------ddddgjomx..........................+wrgggjmojggddgj+.....
(PID.TID 0000.0001) //     48 vxx.....................................................vd------g-------g--------------ddgggjmmv.....................+xrrxwgdggjjoomjggjvxx.....
(PID.TID 0000.0001) //     47 v......................................................m------d-gd------gd-------------ddddggjjt...................ywgd--dggdddgrrojgddgv.......
(PID.TID 0000.0001) //     46 w.....................................................xd-----gd-jdgd----jdgd-----------dd---dddm..................rgddg-----dggmttvogdjjw.......
(PID.TID 0000.0001) //     45 m.....................................................m-----gd--gjjjjj--gjjjjj-------------ddddgt................tgddddg-ggggjoooojddgomm.......
(PID.TID 0000.0001) //     44 .................................................+.wttg----gj----jgggg---jgggg---dd-------ddddggjw..............zj--ggdd--dgjomjjoj-djmm........
(PID.TID 0000.0001) //     43 ................................................+zxmjrg----------dddggdd-dddggdd--d----ddddggddggmx............+wg--dd----djmmgddjd-djow........
(PID.TID 0000.0001) //     42 ...............................................+zyomjjrmd-----------djjj----djjjjdgd----dddddddgggj............wwd-------ddjmgd---d-gmx.........
(PID.TID 0000.0001) //     41 .........................tt.....................mgjjggrgddjddd----d---gg--d---ggtjjggd----ddddggggjm++.......vwwwv-------dgmjd------go..........
(PID.TID 0000.0001) //     40 .........................roo.................yytdd--gdmogggjjgd--jomd-gj-jomd-gjgdgovd-------ddggggjmm.......xxx.xvj-----dgmgd--ddddgt..........
(PID.TID 0000.0001) //     39 ........................xjjjr.....vrr.......vovtd---ddgogjgddggggmjjjmmmgmjjjmmmg--gmd--------dgggjjmmt......oortw.tttg-ddgmgd--ddgjjr..........
(PID.TID 0000.0001) //     38 .......................rmjggjt...rmmo+.....xrov.m--dddgogddddgggddgddddjddgddddjg----------dd-ddgggjmjmmov.....ytmmggttdddjjjdd---dtjr..........
(PID.TID 0000.0001) //     37 ....................zvvtjggggt..+jjjrx+....vmmy.t--ddgmmg--ddjmmg-d-d--dg-d-d--ddd-------dddddddggggjjmmjjjo...toovttwxjdddjjgd----ddo..........
(PID.TID 0000.0001) //     36 ......................tjmgdddrw.+jjjrxz....vty...--gmommmgdddmgor------gr------ggmgg--d---dddddddgggjmmjjggjm+.ww......rjdddgjgd----gm..........
(PID.TID 0000.0001) //     35 ......................dgjmgggmrv+jgjoxz....ww....--mjjorrommjgdjmj---d--mj---d--dgmgdddd-dddddddggggggjjjjjjjtx.........zyggddgjjgggmdjx........
(PID.TID 0000.0001) //     34 rrrrrtz..............rdddjmjgmrmgggjjw........zyxojjggmgggjmjjdgdjd--d--djd--d---djodddddddddddddgggggjjjjjmtrmr..........ymgggjmjggjddgrrrrrtz.
(PID.TID 0000.0001) //     33 dddddgr.............tddggggmjjogdddjjj.........zxxojgjmgggjoojdddmg--dd-dmg--dd--ddmjdgdddddgddddgggggjjjmmtrmmy...........+jgggjmjjdddddddddgr.
(PID.TID 0000.0001) //     32 gdddggo............rgddgddgjjjjddddgddm.........xx..+ttttrrrojggggo--dd-ggo--dd----dgddddddddddddddgggjjjjjtror..............oogdddgggjjgdddggo.
(PID.TID 0000.0001) //     31 jgddgdgy..........vgddgwrjgjmrg--ddgdddr........xxz.....y.xvtomjjdd---ddjdd---dd-jdddddddddddddddddggjjjjgggjjj................tg----dgmjgddgdgy
(PID.TID 0000.0001) //     30 jgdgd-dm..........vggjjovmgjmwd---dgddddmy...+xxxxy++....oo.vtjjgddg--ddgddg--dddjgddddddgjdddddddggjjjgggggggg................zd---dgjmjgdgd-dm
(PID.TID 0000.0001) //     29 jggd--dgy.........wjmmmjmyomjm---ddgdddddgjmooxxxx++++.+..vtvxrrgddjjjjggddjjjjggjmg-dgddgrgddgggggjmmjggggggddr...............yd---dgjmjggd--dg
(PID.TID 0000.0001) //     28 jjdd---gy.........wtr.gggymmjg--ddgj-djdggggggmxx+.....+ommromrvorrrtmmgorrrtmmgdgm--dgddgggggggggjjmjgggggggddd..............+gg---dgmmjjdd---g
(PID.TID 0000.0001) //     27 jgdd---g..........ww..gggymmjgdd-djj-dd---dgjjw+........vtmmmjjxmmotvrrgmmotvrrgddd-ggmtvroggggggjjmjjggjjggddddo.............ygd---dgjmjgdd---g
(PID.TID 0000.0001) //     26 jgdd---o..........rx..ddoromjgdd--gj-d-----jtw+..........ytrrotwrmrzvrjgrmrzvrjgdddgggojmromjgggjjjmjggggggddddjjg............yjd---dgjmjgdd---o
(PID.TID 0000.0001) //     25 jdd--dmo.........roz.rdomgjmmgddddgjd---dggox.............ztxxzyrmmmtv--rmmmtv----dgggggggmmjggggjjjjgggggggggmjddj...........rjgd--ddgmjdd--dmo
(PID.TID 0000.0001) //     24 gd---gogt.......zmjx.jdgdgggmjggddgjd--ddgmr..............zrrtmwoggjto--oggjto----ddddgggggjmjjjjjmjjgggjjjjjmmgdjj..........vjgd----djmgd---gog
(PID.TID 0000.0001) //     23 jgdddojdo.......wjgowj---dgjjmjggggjdddmdddr..............yjrtmrmjgjtmd-mjgjtmd------ddjmjgggggjjjmmmmmmmjjjjjjjggo........+omgddddddgjmjgdddojd
(PID.TID 0000.0001) //     22 jgddmgddj+.....yrddoojddgjggggmjgggooommgddd+.............yjrtororjmt-d-orjmt-d-------dddggdgggggjjmmmjjjjjjjgggggw........rjjmoojdddgjmjgddmgdd
(PID.TID 0000.0001) //     21 ggjjjdddgv.....mrddrogdjjgdddgjmjjmrgjmmgddgt....++.......rgrvovtrmom---trmom------------ddddgggggjmmjjjggjjjggggg+.......wjgggmmjdgggjjggjjjddd
(PID.TID 0000.0001) //     20 ggjgd---dgy.xjgjjddjjjjjgddddggjjjjgggdddddgjttjjjjt......gggrvtt.xrj--dt.xrj--d----------ddggjjggjjjjjjjjjjgggggj.......zjdddddgggggjjjggjgd---
(PID.TID 0000.0001) //     19 jjgd----gggjgjggddgjjjjgd-dddggjjjgggggddddddd------gv...jdddjtww..xjd-dw..xjd-dj--d-------dddddgggjjjgggjjjgggggj......zj-----ddggggjjjjjgd----
(PID.TID 0000.0001) //     18 jjgggdddjg--gjggdgjjjjjgd--dggjjjjjjjjggggddddd------dj..jddddjvy..tjjggy..tjjggdg-----------ddddggjjjggggjjjjgggv......r-------dddgjjjjjjgggddd
(PID.TID 0000.0001) //     17 gggjgdgdddddd--djjjjjjjgddddggjjjjjjjjjjggggdddddddddddvyjddddgv..wwwwrj..wwwwrjd-d-----------ddggjjjjjggggggjjjjz...++t--------ddddgjjjgggjgdgd
(PID.TID 0000.0001) //     16 jjgggdjgdddd--djjjjjjjjgddgjjjjjjjjjjjjjjjgggggdddddggdjrjddddj..vtrjgd-.vtrjgd----dddd-----ddddggjjjjjggdddggjjj....++r----------ddgjjjjjgggdjg
(PID.TID 0000.0001) //     15 jjjjjjjjgdddddgjggggggggdgjx.yjjjggggjjjjjjjjjgggggjjjgjjjdddgjjjjjjjd--jjjjjd------ddddddddddggjjjjjjggddddddggj....++xtjddggdddgjdgggjjjjjjjjj
(PID.TID 0000.0001) //     14 jjjjjjjjjjjjjgdddgjjjgggddgjjjjjjgdgggggggjjgggggggjjjjjggddjjjjjjjd----jjjd------dddddggjggggggjjjjjgggdddddddgjj..+jjjjjjjjjjjjgjjddggjjjjjjjj
(PID.TID 0000.0001) //     13 jjjjjjjgddgggg---gjggggddddjjjjjjgdddgggggggdddddddggjjjjgggjgjjjg------jg------ddddgjjjjjjjjjjjjjjjgggdgd----ddgjjjjjjjjjjjjjjjjggggddgjjjjjjjg
(PID.TID 0000.0001) //     12 gjggdd----dd--------------djjjjjjjdddddgdddddddddddddgjjjjjjjgd-----dddd----dddddddgjjjjjjjjjgggggdddddddddd---dddgjjjjgggjjjjjjjjvggggggjggdd--
(PID.TID 0000.0001) //     11 ------------------------dddddjjjrtjddddddddddddddddddgggjjjjjjjgddddddggddddddgggggjjjjjjgggdggddd--------------ddgjjjjjrrrvttrrjjjgggdd--------
(PID.TID 0000.0001) //     10 ----ggd--------d--ddgdddddgggggjjjjjjjjjjjjjjjjgggjjjjggggjjjjjjjjjjjjjjjjjjjjjjjjjjjjjgggddddd-----------dddddddggjrv..zvjjjggdddddd-------ggd-
(PID.TID 0000.0001) //      9 --ddjjggjjdddddjjggjtw..wrrrrrrrvvvw+........zxx++...zxvttrrjrjjjjjjjjjjjjjjjjjjjjgggggggggddddddddddddddddgdddggjt+...yxrjgdddddddgd-----ddjjgg
(PID.TID 0000.0001) //      8 jjjjjjjtvrjjjjv..............++.............................+trrjjjjjjggjjjjjjggggggdddddddddggjjjjggggddggjjjjjtz....+xxrjgggddddddddddjjjjjjjt
(PID.TID 0000.0001) //      7 .................................................................vttvtjg.vttvtjggggddgggddgggjjjjrttrrvxyzzyyyyy+......xxvtrjjggggggjjv+........
(PID.TID 0000.0001) //      6 ...............................................................+zyyyywjjzyyyywjjjjjgggjjrtwx+.........................+yxxyyyxwttvwy............
(PID.TID 0000.0001) //      5 ................................................................yyyyyyyyyyyyyyyyyyyyz.................................zzz+..+yy+................
(PID.TID 0000.0001) //      4 ................................................................................................................................................
(PID.TID 0000.0001) //      3 ................................................................................................................................................
(PID.TID 0000.0001) //      2 ................................................................................................................................................
(PID.TID 0000.0001) //      1 ................................................................................................................................................
(PID.TID 0000.0001) //      0 ................................................................................................................................................
(PID.TID 0000.0001) //     -1 ................................................................................................................................................
(PID.TID 0000.0001) //     -2 ................................................................................................................................................
(PID.TID 0000.0001) //     -3 ................................................................................................................................................
(PID.TID 0000.0001) // =======================================================
(PID.TID 0000.0001) // END OF FIELD                                          =
(PID.TID 0000.0001) // =======================================================
(PID.TID 0000.0001) 
(PID.TID 0000.0001) // =======================================================
(PID.TID 0000.0001) // Field Model Ro_surf (ini_masks_etc)
(PID.TID 0000.0001) // CMIN =          1.000000000000000E+32
(PID.TID 0000.0001) // CMAX =         -1.000000000000000E+32
(PID.TID 0000.0001) // CINT =          0.000000000000000E+00
(PID.TID 0000.0001) // SYMBOLS (CMIN->CMAX): -abcdefghijklmnopqrstuvwxyz+
(PID.TID 0000.0001) //                  0.0: .
(PID.TID 0000.0001) // RANGE I (Lo:Hi:Step):(    -3:   132:     1)
(PID.TID 0000.0001) // RANGE J (Lo:Hi:Step):(    68:    -3:    -1)
(PID.TID 0000.0001) // RANGE K (Lo:Hi:Step):(   1:   1:   1)
(PID.TID 0000.0001) // =======================================================
(PID.TID 0000.0001) // =======================================================
(PID.TID 0000.0001) // END OF FIELD                                          =
(PID.TID 0000.0001) // =======================================================
(PID.TID 0000.0001) 
(PID.TID 0000.0001) // =======================================================
(PID.TID 0000.0001) // Field hFacC at iteration          0
(PID.TID 0000.0001) // CMIN =          1.000000000000000E+00
(PID.TID 0000.0001) // CMAX =          1.000000000000000E+00
(PID.TID 0000.0001) // CINT =          0.000000000000000E+00
(PID.TID 0000.0001) // SYMBOLS (CMIN->CMAX): -abcdefghijklmnopqrstuvwxyz+
(PID.TID 0000.0001) //                  0.0: .
(PID.TID 0000.0001) // RANGE I (Lo:Hi:Step):(    -3:   132:     1)
(PID.TID 0000.0001) // RANGE J (Lo:Hi:Step):(    68:    -3:    -1)
(PID.TID 0000.0001) // RANGE K (Lo:Hi:Step):(   1:   1:   1)
(PID.TID 0000.0001) // =======================================================
(PID.TID 0000.0001) // =======================================================
(PID.TID 0000.0001) // END OF FIELD                                          =
(PID.TID 0000.0001) // =======================================================
(PID.TID 0000.0001) 
(PID.TID 0000.0001) // =======================================================
(PID.TID 0000.0001) // Field hFacW at iteration          0
(PID.TID 0000.0001) // CMIN =          1.000000000000000E+00
(PID.TID 0000.0001) // CMAX =          1.000000000000000E+00
(PID.TID 0000.0001) // CINT =          0.000000000000000E+00
(PID.TID 0000.0001) // SYMBOLS (CMIN->CMAX): -abcdefghijklmnopqrstuvwxyz+
(PID.TID 0000.0001) //                  0.0: .
(PID.TID 0000.0001) // RANGE I (Lo:Hi:Step):(    -3:   132:     1)
(PID.TID 0000.0001) // RANGE J (Lo:Hi:Step):(    68:    -3:    -1)
(PID.TID 0000.0001) // RANGE K (Lo:Hi:Step):(   1:   1:   1)
(PID.TID 0000.0001) // =======================================================
(PID.TID 0000.0001) // =======================================================
(PID.TID 0000.0001) // END OF FIELD                                          =
(PID.TID 0000.0001) // =======================================================
(PID.TID 0000.0001) 
(PID.TID 0000.0001) // =======================================================
(PID.TID 0000.0001) // Field hFacS at iteration          0
(PID.TID 0000.0001) // CMIN =          1.000000000000000E+00
(PID.TID 0000.0001) // CMAX =          1.000000000000000E+00
(PID.TID 0000.0001) // CINT =          0.000000000000000E+00
(PID.TID 0000.0001) // SYMBOLS (CMIN->CMAX): -abcdefghijklmnopqrstuvwxyz+
(PID.TID 0000.0001) //                  0.0: .
(PID.TID 0000.0001) // RANGE I (Lo:Hi:Step):(    -3:   132:     1)
(PID.TID 0000.0001) // RANGE J (Lo:Hi:Step):(    68:    -3:    -1)
(PID.TID 0000.0001) // RANGE K (Lo:Hi:Step):(   1:   1:   1)
(PID.TID 0000.0001) // =======================================================
(PID.TID 0000.0001) // =======================================================
(PID.TID 0000.0001) // END OF FIELD                                          =
(PID.TID 0000.0001) // =======================================================
(PID.TID 0000.0001) 
(PID.TID 0000.0001) 
(PID.TID 0000.0001) // =======================================================
(PID.TID 0000.0001) // Calendar configuration >>> START <<<
(PID.TID 0000.0001) // =======================================================
(PID.TID 0000.0001) 
(PID.TID 0000.0001) modelstart = /* Start time of the model integration [s] */
(PID.TID 0000.0001)                 2.438553600000000E+11
(PID.TID 0000.0001)     ;
(PID.TID 0000.0001) modelend  = /* End time of the model integration [s] */
(PID.TID 0000.0001)                 2.438555328000000E+11
(PID.TID 0000.0001)     ;
(PID.TID 0000.0001) modelstep = /* Time interval for a model forward step [s] */
(PID.TID 0000.0001)                 4.320000000000000E+04
(PID.TID 0000.0001)     ;
(PID.TID 0000.0001) usingGregorianCalendar= /* Calendar Type: Gregorian Calendar */
(PID.TID 0000.0001)                   F
(PID.TID 0000.0001)     ;
(PID.TID 0000.0001) usingJulianCalendar = /* Calendar Type: Julian Calendar */
(PID.TID 0000.0001)                   F
(PID.TID 0000.0001)     ;
(PID.TID 0000.0001) usingModelCalendar  = /* Calendar Type: Model Calendar */
(PID.TID 0000.0001)                   T
(PID.TID 0000.0001)     ;
(PID.TID 0000.0001) modelstartdate YYYYMMDD = /* Model start date YYYY-MM-DD */
(PID.TID 0000.0001)                98320101
(PID.TID 0000.0001)     ;
(PID.TID 0000.0001)   modelstartdate HHMMSS = /* Model start date HH-MM-SS  */
(PID.TID 0000.0001)                       0
(PID.TID 0000.0001)     ;
(PID.TID 0000.0001) modelenddate   YYYYMMDD = /* Model end date YYYY-MM-DD */
(PID.TID 0000.0001)                98320103
(PID.TID 0000.0001)     ;
(PID.TID 0000.0001)   modelenddate   HHMMSS = /* Model end date HH-MM-SS  */
(PID.TID 0000.0001)                       0
(PID.TID 0000.0001)     ;
(PID.TID 0000.0001) intyears = /* Number of calendar years affected by the integration */
(PID.TID 0000.0001)                       1
(PID.TID 0000.0001)     ;
(PID.TID 0000.0001) intmonths= /* Number of calendar months affected by the integration */
(PID.TID 0000.0001)                       1
(PID.TID 0000.0001)     ;
(PID.TID 0000.0001) intdays = /* Number of calendar days affected by the integration */
(PID.TID 0000.0001)                       2
(PID.TID 0000.0001)     ;
(PID.TID 0000.0001) modeliter0 = /* Base timestep number  */
(PID.TID 0000.0001)                 5644800
(PID.TID 0000.0001)     ;
(PID.TID 0000.0001) modeliterend = /* Final timestep number  */
(PID.TID 0000.0001)                 5644804
(PID.TID 0000.0001)     ;
(PID.TID 0000.0001) modelintsteps= /* Number of model timesteps  */
(PID.TID 0000.0001)                       4
(PID.TID 0000.0001)     ;
(PID.TID 0000.0001) 
(PID.TID 0000.0001) // =======================================================
(PID.TID 0000.0001) // Calendar configuration  >>> END <<<
(PID.TID 0000.0001) // =======================================================
(PID.TID 0000.0001) 
(PID.TID 0000.0001) GAD_INIT_FIXED: GAD_OlMinSize=  1  0  1
(PID.TID 0000.0001) 
(PID.TID 0000.0001) // ===================================
(PID.TID 0000.0001) // GAD parameters :
(PID.TID 0000.0001) // ===================================
(PID.TID 0000.0001) tempAdvScheme =   /* Temp. Horiz.Advection scheme selector */
(PID.TID 0000.0001)                       2
(PID.TID 0000.0001)     ;
(PID.TID 0000.0001) tempVertAdvScheme =   /* Temp. Vert. Advection scheme selector */
(PID.TID 0000.0001)                       2
(PID.TID 0000.0001)     ;
(PID.TID 0000.0001) tempMultiDimAdvec =   /* use Muti-Dim Advec method for Temp */
(PID.TID 0000.0001)                   F
(PID.TID 0000.0001)     ;
(PID.TID 0000.0001) tempSOM_Advection = /* use 2nd Order Moment Advection for Temp */
(PID.TID 0000.0001)                   F
(PID.TID 0000.0001)     ;
(PID.TID 0000.0001) AdamsBashforthGt = /* apply Adams-Bashforth extrapolation on Gt */
(PID.TID 0000.0001)                   T
(PID.TID 0000.0001)     ;
(PID.TID 0000.0001) AdamsBashforth_T = /* apply Adams-Bashforth extrapolation on Temp */
(PID.TID 0000.0001)                   F
(PID.TID 0000.0001)     ;
(PID.TID 0000.0001) saltAdvScheme =   /* Salt. Horiz.advection scheme selector */
(PID.TID 0000.0001)                       2
(PID.TID 0000.0001)     ;
(PID.TID 0000.0001) saltVertAdvScheme =   /* Salt. Vert. Advection scheme selector */
(PID.TID 0000.0001)                       2
(PID.TID 0000.0001)     ;
(PID.TID 0000.0001) saltMultiDimAdvec =   /* use Muti-Dim Advec method for Salt */
(PID.TID 0000.0001)                   F
(PID.TID 0000.0001)     ;
(PID.TID 0000.0001) saltSOM_Advection = /* use 2nd Order Moment Advection for Salt */
(PID.TID 0000.0001)                   F
(PID.TID 0000.0001)     ;
(PID.TID 0000.0001) AdamsBashforthGs = /* apply Adams-Bashforth extrapolation on Gs */
(PID.TID 0000.0001)                   T
(PID.TID 0000.0001)     ;
(PID.TID 0000.0001) AdamsBashforth_S = /* apply Adams-Bashforth extrapolation on Salt */
(PID.TID 0000.0001)                   F
(PID.TID 0000.0001)     ;
(PID.TID 0000.0001) // ===================================
(PID.TID 0000.0001) 
(PID.TID 0000.0001) // =======================================================
(PID.TID 0000.0001) // External forcing (EXF) configuration >>> START <<<
(PID.TID 0000.0001) // =======================================================
(PID.TID 0000.0001) 
(PID.TID 0000.0001)  EXF general parameters:
(PID.TID 0000.0001) 
(PID.TID 0000.0001) exf_iprec = /* exf file precision */
(PID.TID 0000.0001)                      32
(PID.TID 0000.0001)     ;
(PID.TID 0000.0001) useExfYearlyFields = /* add extension _YEAR to input file names */
(PID.TID 0000.0001)                   T
(PID.TID 0000.0001)     ;
(PID.TID 0000.0001) twoDigitYear = /* use 2-digit year extension */
(PID.TID 0000.0001)                   T
(PID.TID 0000.0001)     ;
(PID.TID 0000.0001) exf_verbose = /* print more messages to STDOUT */
(PID.TID 0000.0001)                   F
(PID.TID 0000.0001)     ;
(PID.TID 0000.0001) useExfCheckRange = /* check for fields range */
(PID.TID 0000.0001)                   F
(PID.TID 0000.0001)     ;
(PID.TID 0000.0001) exf_monFreq = /* EXF monitor frequency [ s ] */
(PID.TID 0000.0001)                 4.320000000000000E+04
(PID.TID 0000.0001)     ;
(PID.TID 0000.0001) repeatPeriod = /* period for cycling forcing dataset [ s ] */
(PID.TID 0000.0001)                 0.000000000000000E+00
(PID.TID 0000.0001)     ;
(PID.TID 0000.0001) climTempFreeze= /* Minimum climatological temperature [deg.C] */
(PID.TID 0000.0001)                -1.900000000000000E+00
(PID.TID 0000.0001)     ;
(PID.TID 0000.0001) windStressMax = /* Maximum absolute windstress [ Pa ] */
(PID.TID 0000.0001)                 2.000000000000000E+00
(PID.TID 0000.0001)     ;
(PID.TID 0000.0001) stressIsOnCgrid = /* set u,v_stress on Arakawa C-grid */
(PID.TID 0000.0001)                   F
(PID.TID 0000.0001)     ;
(PID.TID 0000.0001) cen2kel = /* conversion of deg. Centigrade to Kelvin [K] */
(PID.TID 0000.0001)                 2.731500000000000E+02
(PID.TID 0000.0001)     ;
(PID.TID 0000.0001) gravity_mks= /* gravitational acceleration [m/s^2] */
(PID.TID 0000.0001)                 9.810000000000000E+00
(PID.TID 0000.0001)     ;
(PID.TID 0000.0001) atmrho =  /* mean atmospheric density [kg/m^3] */
(PID.TID 0000.0001)                 1.200000000000000E+00
(PID.TID 0000.0001)     ;
(PID.TID 0000.0001) atmcp =  /* mean atmospheric specific heat [J/kg/K] */
(PID.TID 0000.0001)                 1.005000000000000E+03
(PID.TID 0000.0001)     ;
(PID.TID 0000.0001) flamb =  /* latent heat of evaporation [J/kg] */
(PID.TID 0000.0001)                 2.500000000000000E+06
(PID.TID 0000.0001)     ;
(PID.TID 0000.0001) flami =  /* latent heat of pure-ice melting [J/kg] */
(PID.TID 0000.0001)                 3.340000000000000E+05
(PID.TID 0000.0001)     ;
(PID.TID 0000.0001) cvapor_fac = /* const. for Saturation calculation [?] */
(PID.TID 0000.0001)                 6.403800000000000E+05
(PID.TID 0000.0001)     ;
(PID.TID 0000.0001) cvapor_exp = /* const. for Saturation calculation [?] */
(PID.TID 0000.0001)                 5.107400000000000E+03
(PID.TID 0000.0001)     ;
(PID.TID 0000.0001) cvapor_fac_ice= /* const. for Saturation calculation [?] */
(PID.TID 0000.0001)                 1.163780000000000E+07
(PID.TID 0000.0001)     ;
(PID.TID 0000.0001) cvapor_exp_ice= /* const. for Saturation calculation [?] */
(PID.TID 0000.0001)                 5.897800000000000E+03
(PID.TID 0000.0001)     ;
(PID.TID 0000.0001) humid_fac = /* humidity coef. in virtual temp. [(kg/kg)^-1] */
(PID.TID 0000.0001)                 6.060000000000000E-01
(PID.TID 0000.0001)     ;
(PID.TID 0000.0001) gamma_blk = /* adiabatic lapse rate [?] */
(PID.TID 0000.0001)                 1.000000000000000E-02
(PID.TID 0000.0001)     ;
(PID.TID 0000.0001) saltsat = /* reduction of Qsat over salty water [-] */
(PID.TID 0000.0001)                 9.800000000000000E-01
(PID.TID 0000.0001)     ;
(PID.TID 0000.0001) noNegativeEvap = /* prevent negative Evaporation */
(PID.TID 0000.0001)                   F
(PID.TID 0000.0001)     ;
(PID.TID 0000.0001) sstExtrapol = /* extrapolation coeff from lev. 1 & 2 to surf [-] */
(PID.TID 0000.0001)                 0.000000000000000E+00
(PID.TID 0000.0001)     ;
(PID.TID 0000.0001) cDrag_1 = /* coef used in drag calculation [?] */
(PID.TID 0000.0001)                 2.700000000000000E-03
(PID.TID 0000.0001)     ;
(PID.TID 0000.0001) cDrag_2 = /* coef used in drag calculation [?] */
(PID.TID 0000.0001)                 1.420000000000000E-04
(PID.TID 0000.0001)     ;
(PID.TID 0000.0001) cDrag_3 = /* coef used in drag calculation [?] */
(PID.TID 0000.0001)                 7.640000000000000E-05
(PID.TID 0000.0001)     ;
(PID.TID 0000.0001) cStanton_1 = /* coef used in Stanton number calculation [?] */
(PID.TID 0000.0001)                 3.270000000000000E-02
(PID.TID 0000.0001)     ;
(PID.TID 0000.0001) cStanton_2 = /* coef used in Stanton number calculation [?] */
(PID.TID 0000.0001)                 1.800000000000000E-02
(PID.TID 0000.0001)     ;
(PID.TID 0000.0001) cDalton = /* coef used in Dalton number calculation [?] */
(PID.TID 0000.0001)                 3.460000000000000E-02
(PID.TID 0000.0001)     ;
(PID.TID 0000.0001) exf_scal_BulkCdn= /* Drag coefficient scaling factor [-] */
(PID.TID 0000.0001)                 1.000000000000000E+00
(PID.TID 0000.0001)     ;
(PID.TID 0000.0001) zolmin = /* minimum stability parameter [?] */
(PID.TID 0000.0001)                -1.000000000000000E+02
(PID.TID 0000.0001)     ;
(PID.TID 0000.0001) psim_fac = /* coef used in turbulent fluxes calculation [-] */
(PID.TID 0000.0001)                 5.000000000000000E+00
(PID.TID 0000.0001)     ;
(PID.TID 0000.0001) zref =  /* reference height [ m ] */
(PID.TID 0000.0001)                 1.000000000000000E+01
(PID.TID 0000.0001)     ;
(PID.TID 0000.0001) hu =  /* height of mean wind [ m ] */
(PID.TID 0000.0001)                 1.000000000000000E+01
(PID.TID 0000.0001)     ;
(PID.TID 0000.0001) ht =  /* height of mean temperature [ m ] */
(PID.TID 0000.0001)                 2.000000000000000E+00
(PID.TID 0000.0001)     ;
(PID.TID 0000.0001) hq =  /* height of mean spec.humidity [ m ] */
(PID.TID 0000.0001)                 2.000000000000000E+00
(PID.TID 0000.0001)     ;
(PID.TID 0000.0001) uMin = /* minimum wind speed [m/s] */
(PID.TID 0000.0001)                 5.000000000000000E-01
(PID.TID 0000.0001)     ;
(PID.TID 0000.0001) useStabilityFct_overIce= /* transfert Coeffs over sea-ice depend on stability */
(PID.TID 0000.0001)                   F
(PID.TID 0000.0001)     ;
(PID.TID 0000.0001) exf_iceCd = /* drag coefficient over sea-ice (fixed) [-] */
(PID.TID 0000.0001)                 1.630000000000000E-03
(PID.TID 0000.0001)     ;
(PID.TID 0000.0001) exf_iceCe = /* transfert coeff. over sea-ice, for Evap (fixed) [-] */
(PID.TID 0000.0001)                 1.630000000000000E-03
(PID.TID 0000.0001)     ;
(PID.TID 0000.0001) exf_iceCh = /* transfert coeff. over sea-ice, Sens.Heat.(fixed)[-] */
(PID.TID 0000.0001)                 1.630000000000000E-03
(PID.TID 0000.0001)     ;
(PID.TID 0000.0001) exf_albedo =  /* Sea-water albedo [-] */
(PID.TID 0000.0001)                 1.500000000000000E-01
(PID.TID 0000.0001)     ;
(PID.TID 0000.0001) useExfZenAlbedo = /* Sea-water albedo varies with zenith angle */
(PID.TID 0000.0001)                   F
(PID.TID 0000.0001)     ;
(PID.TID 0000.0001) select_ZenAlbedo = /* Sea-water albedo computation method */
(PID.TID 0000.0001)                       0
(PID.TID 0000.0001)     ;
(PID.TID 0000.0001) useExfZenIncoming = /* compute incoming solar radiation */
(PID.TID 0000.0001)                   F
(PID.TID 0000.0001)     ;
(PID.TID 0000.0001) ocean_emissivity = /* longwave ocean-surface emissivity [-] */
(PID.TID 0000.0001)                 9.700176366843034E-01
(PID.TID 0000.0001)     ;
(PID.TID 0000.0001) ice_emissivity = /* longwave seaice emissivity [-] */
(PID.TID 0000.0001)                 9.500000000000000E-01
(PID.TID 0000.0001)     ;
(PID.TID 0000.0001) snow_emissivity = /* longwave snow  emissivity [-] */
(PID.TID 0000.0001)                 9.500000000000000E-01
(PID.TID 0000.0001)     ;
(PID.TID 0000.0001) 
(PID.TID 0000.0001)  EXF main CPP flags:
(PID.TID 0000.0001) 
(PID.TID 0000.0001) // USE_EXF_INTERPOLATION:          NOT defined
(PID.TID 0000.0001) // ALLOW_ATM_TEMP:                     defined
(PID.TID 0000.0001) // ALLOW_ATM_WIND (useAtmWind):        defined
(PID.TID 0000.0001) // ALLOW_DOWNWARD_RADIATION:           defined
(PID.TID 0000.0001) // ALLOW_BULKFORMULAE:                 defined
(PID.TID 0000.0001) 
(PID.TID 0000.0001)    Net shortwave flux forcing starts at                0.
(PID.TID 0000.0001)    Net shortwave flux forcing period is                0.
(PID.TID 0000.0001)    Net shortwave flux forcing is read from file:
(PID.TID 0000.0001)    >>    <<
(PID.TID 0000.0001) 
(PID.TID 0000.0001)    Zonal wind forcing starts at                          0.
(PID.TID 0000.0001)    Zonal wind forcing period is                          0.
(PID.TID 0000.0001)    Zonal wind forcing is read from file:
(PID.TID 0000.0001)    >>    <<
(PID.TID 0000.0001) 
(PID.TID 0000.0001)    Meridional wind forcing starts at                     0.
(PID.TID 0000.0001)    Meridional wind forcing period is                     0.
(PID.TID 0000.0001)    Meridional wind forcing is read from file:
(PID.TID 0000.0001)    >>    <<
(PID.TID 0000.0001) 
(PID.TID 0000.0001)    Atmospheric temperature starts at                     0.
(PID.TID 0000.0001)    Atmospheric temperature period is                     0.
(PID.TID 0000.0001)    Atmospheric temperature is read from file:
(PID.TID 0000.0001)    >>    <<
(PID.TID 0000.0001) 
(PID.TID 0000.0001)    Atmospheric specific humidity starts at               0.
(PID.TID 0000.0001)    Atmospheric specific humidity period is               0.
(PID.TID 0000.0001)    Atmospheric specific humidity is read from file:
(PID.TID 0000.0001)    >>    <<
(PID.TID 0000.0001) 
(PID.TID 0000.0001)    Net longwave flux forcing starts at                 0.
(PID.TID 0000.0001)    Net longwave flux forcing period is                 0.
(PID.TID 0000.0001)    Net longwave flux forcing is read from file:
(PID.TID 0000.0001)    >>    <<
(PID.TID 0000.0001) 
(PID.TID 0000.0001)    Precipitation data set starts at                      0.
(PID.TID 0000.0001)    Precipitation data period is                          0.
(PID.TID 0000.0001)    Precipitation data is read from file:
(PID.TID 0000.0001)    >>    <<
(PID.TID 0000.0001) 
(PID.TID 0000.0001) // EXF_READ_EVAP:                  NOT defined
(PID.TID 0000.0001) 
(PID.TID 0000.0001) // ALLOW_RUNOFF:                       defined
(PID.TID 0000.0001)    Runoff starts at               0.
(PID.TID 0000.0001)    Runoff period is               0.
(PID.TID 0000.0001)    Runoff is read from file:
(PID.TID 0000.0001)    >>    <<
(PID.TID 0000.0001) 
(PID.TID 0000.0001)    Downward shortwave flux forcing starts at                0.
(PID.TID 0000.0001)    Downward shortwave flux forcing period is                0.
(PID.TID 0000.0001)    Downward shortwave flux forcing is read from file:
(PID.TID 0000.0001)    >>    <<
(PID.TID 0000.0001) 
(PID.TID 0000.0001)    Downward longwave flux forcing starts at                 0.
(PID.TID 0000.0001)    Downward longwave flux forcing period is                 0.
(PID.TID 0000.0001)    Downward longwave flux forcing is read from file:
(PID.TID 0000.0001)    >>    <<
(PID.TID 0000.0001) 
(PID.TID 0000.0001)    Atmospheric pressure forcing starts at                0.
(PID.TID 0000.0001)    Atmospheric pressure forcing period is                0.
(PID.TID 0000.0001)    Atmospheric pressureforcing is read from file:
(PID.TID 0000.0001)    >>    <<
(PID.TID 0000.0001) 
(PID.TID 0000.0001) // =======================================================
(PID.TID 0000.0001) // External forcing (EXF) climatology configuration :
(PID.TID 0000.0001) // =======================================================
(PID.TID 0000.0001) 
(PID.TID 0000.0001) // ALLOW_CLIMSST_RELAXATION:       NOT defined
(PID.TID 0000.0001) // ALLOW_CLIMSSS_RELAXATION:       NOT defined
(PID.TID 0000.0001) 
(PID.TID 0000.0001) // =======================================================
(PID.TID 0000.0001) // External forcing (EXF) configuration  >>> END <<<
(PID.TID 0000.0001) // =======================================================
(PID.TID 0000.0001) 
(PID.TID 0000.0001) ------------------------------------------------------------
(PID.TID 0000.0001) DIAGNOSTICS_SET_LEVELS: done
(PID.TID 0000.0001)  Total Nb of available Diagnostics: ndiagt=  2283
(PID.TID 0000.0001)  write list of available Diagnostics to file: available_diagnostics.log
(PID.TID 0000.0001) SETDIAG: Allocate 15 x  1 Levels for Diagnostic #   224 TRAC01
(PID.TID 0000.0001) SETDIAG: Allocate 15 x  1 Levels for Diagnostic #   236 TRAC02
(PID.TID 0000.0001) SETDIAG: Allocate 15 x  1 Levels for Diagnostic #   248 TRAC03
(PID.TID 0000.0001) SETDIAG: Allocate 15 x  1 Levels for Diagnostic #   260 TRAC04
(PID.TID 0000.0001) SETDIAG: Allocate 15 x  1 Levels for Diagnostic #   272 TRAC05
[...]
 Computing Diagnostic #    560  TRAC29       Counter:       1   Parms: SMR     MR      
 Computing Diagnostic #    572  TRAC30       Counter:       1   Parms: SMR     MR      
 Computing Diagnostic #    584  TRAC31       Counter:       1   Parms: SMR     MR      
 Computing Diagnostic #    596  TRAC32       Counter:       1   Parms: SMR     MR      
 Computing Diagnostic #    608  TRAC33       Counter:       1   Parms: SMR     MR      
 Computing Diagnostic #    620  TRAC34       Counter:       1   Parms: SMR     MR      
 Computing Diagnostic #    632  TRAC35       Counter:       1   Parms: SMR     MR      
 Computing Diagnostic #    644  TRAC36       Counter:       1   Parms: SMR     MR      
 Computing Diagnostic #    656  TRAC37       Counter:       1   Parms: SMR     MR      
 Computing Diagnostic #    668  TRAC38       Counter:       1   Parms: SMR     MR      
 Computing Diagnostic #    680  TRAC39       Counter:       1   Parms: SMR     MR      
 Computing Diagnostic #    692  TRAC40       Counter:       1   Parms: SMR     MR      
 Computing Diagnostic #    704  TRAC41       Counter:       1   Parms: SMR     MR      
 Computing Diagnostic #    716  TRAC42       Counter:       1   Parms: SMR     MR      
 Computing Diagnostic #    728  TRAC43       Counter:       1   Parms: SMR     MR      
 Computing Diagnostic #    740  TRAC44       Counter:       1   Parms: SMR     MR      
 Computing Diagnostic #    752  TRAC45       Counter:       1   Parms: SMR     MR      
 Computing Diagnostic #    764  TRAC46       Counter:       1   Parms: SMR     MR      
 Computing Diagnostic #    776  TRAC47       Counter:       1   Parms: SMR     MR      
 Computing Diagnostic #    788  TRAC48       Counter:       1   Parms: SMR     MR      
 Computing Diagnostic #    800  TRAC49       Counter:       1   Parms: SMR     MR      
 Computing Diagnostic #    812  TRAC50       Counter:       1   Parms: SMR     MR      
 Computing Diagnostic #    824  TRAC51       Counter:       1   Parms: SMR     MR      
 Computing Diagnostic #    836  TRAC52       Counter:       1   Parms: SMR     MR      
 Computing Diagnostic #    848  TRAC53       Counter:       1   Parms: SMR     MR      
 Computing Diagnostic #    860  TRAC54       Counter:       1   Parms: SMR     MR      
 Computing Diagnostic #    872  TRAC55       Counter:       1   Parms: SMR     MR      
 Computing Diagnostic #    884  TRAC56       Counter:       1   Parms: SMR     MR      
 Computing Diagnostic #    896  TRAC57       Counter:       1   Parms: SMR     MR      
 Computing Diagnostic #    908  TRAC58       Counter:       1   Parms: SMR     MR      
 Computing Diagnostic #    920  TRAC59       Counter:       1   Parms: SMR     MR      
 Computing Diagnostic #    932  TRAC60       Counter:       1   Parms: SMR     MR      
 Computing Diagnostic #    944  TRAC61       Counter:       1   Parms: SMR     MR      
 Computing Diagnostic #    956  TRAC62       Counter:       1   Parms: SMR     MR      
 Computing Diagnostic #    968  TRAC63       Counter:       1   Parms: SMR     MR      
 Computing Diagnostic #    980  TRAC64       Counter:       1   Parms: SMR     MR      
 Computing Diagnostic #    992  TRAC65       Counter:       1   Parms: SMR     MR      
 Computing Diagnostic #   1004  TRAC66       Counter:       1   Parms: SMR     MR      
 Computing Diagnostic #   1016  TRAC67       Counter:       1   Parms: SMR     MR      
 Computing Diagnostic #   1028  TRAC68       Counter:       1   Parms: SMR     MR      
 Computing Diagnostic #   1040  TRAC69       Counter:       1   Parms: SMR     MR      
 Computing Diagnostic #   1052  TRAC70       Counter:       1   Parms: SMR     MR      
 Computing Diagnostic #   1064  TRAC71       Counter:       1   Parms: SMR     MR      
 Computing Diagnostic #   1076  TRAC72       Counter:       1   Parms: SMR     MR      
 Computing Diagnostic #   1088  TRAC73       Counter:       1   Parms: SMR     MR      
 Computing Diagnostic #   1100  TRAC74       Counter:       1   Parms: SMR     MR      
 Computing Diagnostic #   1112  TRAC75       Counter:       1   Parms: SMR     MR      
 Computing Diagnostic #   1124  TRAC76       Counter:       1   Parms: SMR     MR      
 Computing Diagnostic #   1136  TRAC77       Counter:       1   Parms: SMR     MR      
 Computing Diagnostic #   1148  TRAC78       Counter:       1   Parms: SMR     MR      
 Computing Diagnostic #   1160  TRAC79       Counter:       1   Parms: SMR     MR      
 Computing Diagnostic #   1172  TRAC80       Counter:       1   Parms: SMR     MR      
 Computing Diagnostic #   1184  TRAC81       Counter:       1   Parms: SMR     MR      
 Computing Diagnostic #   1196  TRAC82       Counter:       1   Parms: SMR     MR      
 Computing Diagnostic #   1208  TRAC83       Counter:       1   Parms: SMR     MR      
 Computing Diagnostic #   1220  TRAC84       Counter:       1   Parms: SMR     MR      
 Computing Diagnostic #   1232  TRAC85       Counter:       1   Parms: SMR     MR      
 Computing Diagnostic #   1244  TRAC86       Counter:       1   Parms: SMR     MR      
 Computing Diagnostic #   1256  TRAC87       Counter:       1   Parms: SMR     MR      
 Computing Diagnostic #   1268  TRAC88       Counter:       1   Parms: SMR     MR      
 Computing Diagnostic #   1280  TRAC89       Counter:       1   Parms: SMR     MR      
 Computing Diagnostic #   1292  TRAC90       Counter:       1   Parms: SMR     MR      
 Computing Diagnostic #   1304  TRAC91       Counter:       1   Parms: SMR     MR      
 Computing Diagnostic #   1316  TRAC92       Counter:       1   Parms: SMR     MR      
 Computing Diagnostic #   1328  TRAC93       Counter:       1   Parms: SMR     MR      
 Computing Diagnostic #   1340  TRAC94       Counter:       1   Parms: SMR     MR      
 Computing Diagnostic #   1352  TRAC95       Counter:       1   Parms: SMR     MR      
 Computing Diagnostic #   1364  TRAC96       Counter:       1   Parms: SMR     MR      
 Computing Diagnostic #   1376  TRAC97       Counter:       1   Parms: SMR     MR      
 Computing Diagnostic #   1393  PAR01        Counter:       8   Parms: SM P    MR      
 Computing Diagnostic #   1400  DIC_c01      Counter:       4   Parms: SM P    MR      
 Computing Diagnostic #   1411  DIC_c02      Counter:       4   Parms: SM P    MR      
 Computing Diagnostic #   1401  c01_DOC      Counter:       4   Parms: SM P    MR      
 Computing Diagnostic #   1412  c02_DOC      Counter:       4   Parms: SM P    MR      
 Computing Diagnostic #   1402  c01_POC      Counter:       4   Parms: SM P    MR      
 Computing Diagnostic #   1413  c02_POC      Counter:       4   Parms: SM P    MR      
 Computing Diagnostic #   1392  PARF         Counter:       4   Parms: SM P    MR      
 Computing Diagnostic #   1389  atten        Counter:       4   Parms: SM P    MR      
 Computing Diagnostic #   1391  surfPAR      Counter:       4   Parms: SM P    MR      
 Computing Diagnostic #   1390  exfPAR       Counter:       1   Parms: SM P    MR      
 Computing Diagnostic #   1394  limn01       Counter:       4   Parms: SM P    MR      
 Computing Diagnostic #   1395  limp01       Counter:       4   Parms: SM P    MR      
 Computing Diagnostic #   1396  limsi01      Counter:       4   Parms: SM P    MR      
 Computing Diagnostic #   1397  limfe01      Counter:       4   Parms: SM P    MR      
 Computing Diagnostic #   1398  limI01       Counter:       4   Parms: SM P    MR      
 Computing Diagnostic #   1399  limT01       Counter:       4   Parms: SM P    MR      
 Computing Diagnostic #   1403  c01_c        Counter:       4   Parms: SM P    MR      
 Computing Diagnostic #   1414  c02_c        Counter:       4   Parms: SM P    MR      
 Computing Diagnostic #   1426  c_c03        Counter:       4   Parms: SM P    MR      
 Computing Diagnostic #   1437  c_c04        Counter:       4   Parms: SM P    MR      
 Computing Diagnostic #   2274  c_DOC        Counter:       4   Parms: SM P    MR      
 Computing Diagnostic #   2275  c_POC        Counter:       4   Parms: SM P    MR      
 Computing Diagnostic #   2276  c_PIC        Counter:       4   Parms: SM P    MR      
 Computing Diagnostic #   2277  n_DON        Counter:       4   Parms: SM P    MR      
 Computing Diagnostic #   2278  n_PON        Counter:       4   Parms: SM P    MR      
 Computing Diagnostic #   2279  p_DOP        Counter:       4   Parms: SM P    MR      
 Computing Diagnostic #   2280  p_POP        Counter:       4   Parms: SM P    MR      
(PID.TID 0000.0001) %CHECKPOINT   5644804 ckptA
(PID.TID 0000.0001)   Seconds in section "ALL                    [THE_MODEL_MAIN]":
(PID.TID 0000.0001)           User time:   340.38000000000000
(PID.TID 0000.0001)         System time:   57.689999999999998
(PID.TID 0000.0001)     Wall clock time:   593.35914087295532
(PID.TID 0000.0001)          No. starts:           1
(PID.TID 0000.0001)           No. stops:           1
(PID.TID 0000.0001)   Seconds in section "INITIALISE_FIXED       [THE_MODEL_MAIN]":
(PID.TID 0000.0001)           User time:  0.70999999999999996
(PID.TID 0000.0001)         System time:   8.0000000000000002E-002
(PID.TID 0000.0001)     Wall clock time:   3.6829500198364258
(PID.TID 0000.0001)          No. starts:           1
(PID.TID 0000.0001)           No. stops:           1
(PID.TID 0000.0001)   Seconds in section "THE_MAIN_LOOP          [THE_MODEL_MAIN]":
(PID.TID 0000.0001)           User time:   339.66000000000003
(PID.TID 0000.0001)         System time:   57.600000000000001
(PID.TID 0000.0001)     Wall clock time:   589.67466092109680
(PID.TID 0000.0001)          No. starts:           1
(PID.TID 0000.0001)           No. stops:           1
(PID.TID 0000.0001)   Seconds in section "INITIALISE_VARIA    [THE_MAIN_LOOP]":
(PID.TID 0000.0001)           User time:   5.0000000000000000
(PID.TID 0000.0001)         System time:   6.8200000000000003
(PID.TID 0000.0001)     Wall clock time:   71.361209869384766
(PID.TID 0000.0001)          No. starts:           1
(PID.TID 0000.0001)           No. stops:           1
(PID.TID 0000.0001)   Seconds in section "MAIN LOOP           [THE_MAIN_LOOP]":
(PID.TID 0000.0001)           User time:   334.66000000000003
(PID.TID 0000.0001)         System time:   50.780000000000001
(PID.TID 0000.0001)     Wall clock time:   518.31341481208801
(PID.TID 0000.0001)          No. starts:           1
(PID.TID 0000.0001)           No. stops:           1
(PID.TID 0000.0001)   Seconds in section "FORWARD_STEP        [THE_MAIN_LOOP]":
(PID.TID 0000.0001)           User time:   334.65999999999997
(PID.TID 0000.0001)         System time:   50.779999999999994
(PID.TID 0000.0001)     Wall clock time:   518.31336402893066
(PID.TID 0000.0001)          No. starts:           4
(PID.TID 0000.0001)           No. stops:           4
(PID.TID 0000.0001)   Seconds in section "DO_STATEVARS_DIAGS  [FORWARD_STEP]":
(PID.TID 0000.0001)           User time:  0.55000000000006821
(PID.TID 0000.0001)         System time:   0.0000000000000000
(PID.TID 0000.0001)     Wall clock time:  0.55365610122680664
(PID.TID 0000.0001)          No. starts:           8
(PID.TID 0000.0001)           No. stops:           8
(PID.TID 0000.0001)   Seconds in section "LOAD_FIELDS_DRIVER  [FORWARD_STEP]":
(PID.TID 0000.0001)           User time:   9.9999999999965894E-002
(PID.TID 0000.0001)         System time:   1.9999999999996021E-002
(PID.TID 0000.0001)     Wall clock time:  0.30986571311950684
(PID.TID 0000.0001)          No. starts:           4
(PID.TID 0000.0001)           No. stops:           4
(PID.TID 0000.0001)   Seconds in section "EXF_GETFORCING     [LOAD_FLDS_DRIVER]":
(PID.TID 0000.0001)           User time:   7.9999999999984084E-002
(PID.TID 0000.0001)         System time:   0.0000000000000000
(PID.TID 0000.0001)     Wall clock time:   8.3839893341064453E-002
(PID.TID 0000.0001)          No. starts:           4
(PID.TID 0000.0001)           No. stops:           4
(PID.TID 0000.0001)   Seconds in section "EXTERNAL_FLDS_LOAD [LOAD_FLDS_DRIVER]":
(PID.TID 0000.0001)           User time:   1.0000000000047748E-002
(PID.TID 0000.0001)         System time:   1.0000000000005116E-002
(PID.TID 0000.0001)     Wall clock time:   7.1650981903076172E-002
(PID.TID 0000.0001)          No. starts:           4
(PID.TID 0000.0001)           No. stops:           4
(PID.TID 0000.0001)   Seconds in section "DO_ATMOSPHERIC_PHYS [FORWARD_STEP]":
(PID.TID 0000.0001)           User time:   0.0000000000000000
(PID.TID 0000.0001)         System time:   0.0000000000000000
(PID.TID 0000.0001)     Wall clock time:   5.0067901611328125E-005
(PID.TID 0000.0001)          No. starts:           4
(PID.TID 0000.0001)           No. stops:           4
(PID.TID 0000.0001)   Seconds in section "DO_OCEANIC_PHYS     [FORWARD_STEP]":
(PID.TID 0000.0001)           User time:  0.31999999999999318
(PID.TID 0000.0001)         System time:   0.0000000000000000
(PID.TID 0000.0001)     Wall clock time:  0.32819867134094238
(PID.TID 0000.0001)          No. starts:           4
(PID.TID 0000.0001)           No. stops:           4
(PID.TID 0000.0001)   Seconds in section "GCHEM_CALC_TENDENCY [FORWARD_STEP]":
(PID.TID 0000.0001)           User time:   0.0000000000000000
(PID.TID 0000.0001)         System time:   0.0000000000000000
(PID.TID 0000.0001)     Wall clock time:   4.1007995605468750E-005
(PID.TID 0000.0001)          No. starts:           4
(PID.TID 0000.0001)           No. stops:           4
(PID.TID 0000.0001)   Seconds in section "THERMODYNAMICS      [FORWARD_STEP]":
(PID.TID 0000.0001)           User time:   59.570000000000050
(PID.TID 0000.0001)         System time:   0.0000000000000000
(PID.TID 0000.0001)     Wall clock time:   59.907765865325928
(PID.TID 0000.0001)          No. starts:           4
(PID.TID 0000.0001)           No. stops:           4
(PID.TID 0000.0001)   Seconds in section "DYNAMICS            [FORWARD_STEP]":
(PID.TID 0000.0001)           User time:   1.6200000000000045
(PID.TID 0000.0001)         System time:   0.0000000000000000
(PID.TID 0000.0001)     Wall clock time:   1.6316237449645996
(PID.TID 0000.0001)          No. starts:           4
(PID.TID 0000.0001)           No. stops:           4
(PID.TID 0000.0001)   Seconds in section "SOLVE_FOR_PRESSURE  [FORWARD_STEP]":
(PID.TID 0000.0001)           User time:  0.16000000000002501
(PID.TID 0000.0001)         System time:   0.0000000000000000
(PID.TID 0000.0001)     Wall clock time:  0.16997098922729492
(PID.TID 0000.0001)          No. starts:           4
(PID.TID 0000.0001)           No. stops:           4
(PID.TID 0000.0001)   Seconds in section "MOM_CORRECTION_STEP [FORWARD_STEP]":
(PID.TID 0000.0001)           User time:   2.9999999999972715E-002
(PID.TID 0000.0001)         System time:   0.0000000000000000
(PID.TID 0000.0001)     Wall clock time:   2.8180122375488281E-002
(PID.TID 0000.0001)          No. starts:           4
(PID.TID 0000.0001)           No. stops:           4
(PID.TID 0000.0001)   Seconds in section "INTEGR_CONTINUITY   [FORWARD_STEP]":
(PID.TID 0000.0001)           User time:   5.0000000000011369E-002
(PID.TID 0000.0001)         System time:   0.0000000000000000
(PID.TID 0000.0001)     Wall clock time:   4.6514987945556641E-002
(PID.TID 0000.0001)          No. starts:           4
(PID.TID 0000.0001)           No. stops:           4
(PID.TID 0000.0001)   Seconds in section "TRC_CORRECTION_STEP [FORWARD_STEP]":
(PID.TID 0000.0001)           User time:  0.64999999999997726
(PID.TID 0000.0001)         System time:   0.0000000000000000
(PID.TID 0000.0001)     Wall clock time:  0.65689802169799805
(PID.TID 0000.0001)          No. starts:           4
(PID.TID 0000.0001)           No. stops:           4
(PID.TID 0000.0001)   Seconds in section "GCHEM_FORCING_SEP  [FORWARD_STEP]":
(PID.TID 0000.0001)           User time:   256.20000000000005
(PID.TID 0000.0001)         System time:   38.740000000000002
(PID.TID 0000.0001)     Wall clock time:   298.03293967247009
(PID.TID 0000.0001)          No. starts:           4
(PID.TID 0000.0001)           No. stops:           4
(PID.TID 0000.0001)   Seconds in section "BLOCKING_EXCHANGES  [FORWARD_STEP]":
(PID.TID 0000.0001)           User time:  0.35999999999995680
(PID.TID 0000.0001)         System time:   0.0000000000000000
(PID.TID 0000.0001)     Wall clock time:  0.36471700668334961
(PID.TID 0000.0001)          No. starts:           4
(PID.TID 0000.0001)           No. stops:           4
(PID.TID 0000.0001)   Seconds in section "DO_STATEVARS_TAVE   [FORWARD_STEP]":
(PID.TID 0000.0001)           User time:   1.0400000000000773
(PID.TID 0000.0001)         System time:   0.0000000000000000
(PID.TID 0000.0001)     Wall clock time:   1.0485377311706543
(PID.TID 0000.0001)          No. starts:           4
(PID.TID 0000.0001)           No. stops:           4
(PID.TID 0000.0001)   Seconds in section "MONITOR             [FORWARD_STEP]":
(PID.TID 0000.0001)           User time:  0.34999999999996589
(PID.TID 0000.0001)         System time:   0.0000000000000000
(PID.TID 0000.0001)     Wall clock time:  0.34660744667053223
(PID.TID 0000.0001)          No. starts:           4
(PID.TID 0000.0001)           No. stops:           4
(PID.TID 0000.0001)   Seconds in section "DO_THE_MODEL_IO     [FORWARD_STEP]":
(PID.TID 0000.0001)           User time:   12.909999999999968
(PID.TID 0000.0001)         System time:   11.919999999999987
(PID.TID 0000.0001)     Wall clock time:   154.02137708663940
(PID.TID 0000.0001)          No. starts:           4
(PID.TID 0000.0001)           No. stops:           4
(PID.TID 0000.0001)   Seconds in section "DO_WRITE_PICKUP     [FORWARD_STEP]":
(PID.TID 0000.0001)           User time:  0.75000000000000000
(PID.TID 0000.0001)         System time:  0.10000000000000142
(PID.TID 0000.0001)     Wall clock time:  0.86556529998779297
(PID.TID 0000.0001)          No. starts:           4
(PID.TID 0000.0001)           No. stops:           4
(PID.TID 0000.0001) // ======================================================
(PID.TID 0000.0001) // Tile <-> Tile communication statistics
(PID.TID 0000.0001) // ======================================================
(PID.TID 0000.0001) // o Tile number: 000001
(PID.TID 0000.0001) //         No. X exchanges =              0
(PID.TID 0000.0001) //            Max. X spins =              0
(PID.TID 0000.0001) //            Min. X spins =     1000000000
(PID.TID 0000.0001) //          Total. X spins =              0
(PID.TID 0000.0001) //            Avg. X spins =       0.00E+00
(PID.TID 0000.0001) //         No. Y exchanges =              0
(PID.TID 0000.0001) //            Max. Y spins =              0
(PID.TID 0000.0001) //            Min. Y spins =     1000000000
(PID.TID 0000.0001) //          Total. Y spins =              0
(PID.TID 0000.0001) //            Avg. Y spins =       0.00E+00
(PID.TID 0000.0001) // o Tile number: 000002
(PID.TID 0000.0001) //         No. X exchanges =              0
(PID.TID 0000.0001) //            Max. X spins =              0
(PID.TID 0000.0001) //            Min. X spins =     1000000000
(PID.TID 0000.0001) //          Total. X spins =              0
(PID.TID 0000.0001) //            Avg. X spins =       0.00E+00
(PID.TID 0000.0001) //         No. Y exchanges =              0
(PID.TID 0000.0001) //            Max. Y spins =              0
(PID.TID 0000.0001) //            Min. Y spins =     1000000000
(PID.TID 0000.0001) //          Total. Y spins =              0
(PID.TID 0000.0001) //            Avg. Y spins =       0.00E+00
(PID.TID 0000.0001) // o Thread number: 000001
(PID.TID 0000.0001) //            No. barriers =           8572
(PID.TID 0000.0001) //      Max. barrier spins =              1
(PID.TID 0000.0001) //      Min. barrier spins =              1
(PID.TID 0000.0001) //     Total barrier spins =           8572
(PID.TID 0000.0001) //      Avg. barrier spins =       1.00E+00
PROGRAM MAIN: Execution ended Normally
