(PID.TID 0000.0001) 
(PID.TID 0000.0001) // ======================================================
(PID.TID 0000.0001) //                      MITgcm UV
(PID.TID 0000.0001) //                      =========
(PID.TID 0000.0001) // ======================================================
(PID.TID 0000.0001) // execution environment starting up...
(PID.TID 0000.0001) 
(PID.TID 0000.0001) // Build user:        jahn
(PID.TID 0000.0001) // Build host:        saramago.mit.edu
(PID.TID 0000.0001) // Build date:        Fri Jan 25 15:13:30 EST 2013
(PID.TID 0000.0001) 
(PID.TID 0000.0001) // =======================================================
(PID.TID 0000.0001) // Execution Environment parameter file "eedata"
(PID.TID 0000.0001) // =======================================================
(PID.TID 0000.0001) ># Example "eedata" file
(PID.TID 0000.0001) ># Lines beginning "#" are comments
(PID.TID 0000.0001) ># nTx - No. threads per process in X
(PID.TID 0000.0001) ># nTy - No. threads per process in Y
(PID.TID 0000.0001) > &EEPARMS
(PID.TID 0000.0001) > nTx=1,nTy=1
(PID.TID 0000.0001) > /
(PID.TID 0000.0001) ># Note: Some systems use & as the
(PID.TID 0000.0001) ># namelist terminator. Other systems
(PID.TID 0000.0001) ># use a / character (as shown here).
(PID.TID 0000.0001) 
(PID.TID 0000.0001) // =======================================================
(PID.TID 0000.0001) // Computational Grid Specification ( see files "SIZE.h" )
(PID.TID 0000.0001) //                                  ( and "eedata"       )
(PID.TID 0000.0001) // =======================================================
(PID.TID 0000.0001)      nPx =    1 ; /* No. processes in X */
(PID.TID 0000.0001)      nPy =    1 ; /* No. processes in Y */
(PID.TID 0000.0001)      nSx =    1 ; /* No. tiles in X per process */
(PID.TID 0000.0001)      nSy =    1 ; /* No. tiles in Y per process */
(PID.TID 0000.0001)      sNx =    1 ; /* Tile size in X */
(PID.TID 0000.0001)      sNy =    1 ; /* Tile size in Y */
(PID.TID 0000.0001)      OLx =    2 ; /* Tile overlap distance in X */
(PID.TID 0000.0001)      OLy =    2 ; /* Tile overlap distance in Y */
(PID.TID 0000.0001)      nTx =    1 ; /* No. threads in X per process */
(PID.TID 0000.0001)      nTy =    1 ; /* No. threads in Y per process */
(PID.TID 0000.0001)       Nr =   35 ; /* No. levels in the vertical   */
(PID.TID 0000.0001)       Nx =    1 ; /* Total domain size in X ( = nPx*nSx*sNx ) */
(PID.TID 0000.0001)       Ny =    1 ; /* Total domain size in Y ( = nPy*nSy*sNy ) */
(PID.TID 0000.0001)   nTiles =    1 ; /* Total no. tiles per process ( = nSx*nSy ) */
(PID.TID 0000.0001)   nProcs =    1 ; /* Total no. processes ( = nPx*nPy ) */
(PID.TID 0000.0001) nThreads =    1 ; /* Total no. threads per process ( = nTx*nTy ) */
(PID.TID 0000.0001) usingMPI =    F ; /* Flag used to control whether MPI is in use */
(PID.TID 0000.0001)                   /*  note: To execute a program with MPI calls */
(PID.TID 0000.0001)                   /*  it must be launched appropriately e.g     */
(PID.TID 0000.0001)                   /*  "mpirun -np 64 ......"                    */
(PID.TID 0000.0001) useCoupler=    F ;/* Flag used to control communications with   */
(PID.TID 0000.0001)                   /*  other model components, through a coupler */
(PID.TID 0000.0001) debugMode =    F ; /* print debug msg. (sequence of S/R calls)  */
(PID.TID 0000.0001) printMapIncludesZeros=    F ; /* print zeros in Std.Output maps */
(PID.TID 0000.0001) maxLengthPrt1D=   65 /* maxLength of 1D array printed to StdOut */
(PID.TID 0000.0001) 
(PID.TID 0000.0001) // ======================================================
(PID.TID 0000.0001) // Mapping of tiles to threads
(PID.TID 0000.0001) // ======================================================
(PID.TID 0000.0001) // -o- Thread   1, tiles (   1:   1,   1:   1)
(PID.TID 0000.0001) 
(PID.TID 0000.0001) // ======================================================
(PID.TID 0000.0001) // Tile <-> Tile connectvity table
(PID.TID 0000.0001) // ======================================================
(PID.TID 0000.0001) // Tile number: 000001 (process no. = 000000)
(PID.TID 0000.0001) //        WEST: Tile = 000001, Process = 000000, Comm = put
(PID.TID 0000.0001) //                bi = 000001, bj = 000001
(PID.TID 0000.0001) //        EAST: Tile = 000001, Process = 000000, Comm = put
(PID.TID 0000.0001) //                bi = 000001, bj = 000001
(PID.TID 0000.0001) //       SOUTH: Tile = 000001, Process = 000000, Comm = put
(PID.TID 0000.0001) //                bi = 000001, bj = 000001
(PID.TID 0000.0001) //       NORTH: Tile = 000001, Process = 000000, Comm = put
(PID.TID 0000.0001) //                bi = 000001, bj = 000001
(PID.TID 0000.0001) 
(PID.TID 0000.0001)  INI_PARMS: opening model parameter file "data"
(PID.TID 0000.0001)  OPEN_COPY_DATA_FILE: opening file data
(PID.TID 0000.0001) // =======================================================
(PID.TID 0000.0001) // Parameter file "data"
(PID.TID 0000.0001) // =======================================================
(PID.TID 0000.0001) >#
(PID.TID 0000.0001) ># ******************************
(PID.TID 0000.0001) ># Model parameters
(PID.TID 0000.0001) ># Continuous equation parameters
(PID.TID 0000.0001) ># ******************************
(PID.TID 0000.0001) >&PARM01
(PID.TID 0000.0001) >tRef= 26.5, 26.1, 26., 25.5, 25.4, 24.9, 24.5, 24.0, 23.7,
(PID.TID 0000.0001) >      23.3, 23.1, 22.8, 22.5, 22.1, 21.6, 20.6, 19.5, 18.4,
(PID.TID 0000.0001) >      17.3, 16.6, 15.5, 14.6, 13.8, 13.1, 11.6, 10.1, 7.7,
(PID.TID 0000.0001) >      5.3, 4.1, 3.7, 3.7, 3.4, 3.0, 2.8, 2.6,
(PID.TID 0000.0001) >sRef= 35*35.00,
(PID.TID 0000.0001) >no_slip_sides=.false.,
(PID.TID 0000.0001) >no_slip_bottom=.TRUE.,
(PID.TID 0000.0001) >viscAz=0.e0,
(PID.TID 0000.0001) >viscAh=0.e0,
(PID.TID 0000.0001) >diffKhT=1.E2,
(PID.TID 0000.0001) >diffKzT=1.E-4,
(PID.TID 0000.0001) >diffKhS=0.D0,
(PID.TID 0000.0001) >diffKzS=0.D0,
(PID.TID 0000.0001) >beta=1.E-11,
(PID.TID 0000.0001) >tAlpha=2.E-4,
(PID.TID 0000.0001) >sBeta =7.4E-4,
(PID.TID 0000.0001) >gravity=9.81,
(PID.TID 0000.0001) >gBaro=9.81,
(PID.TID 0000.0001) >rigidLid=.TRUE.,
(PID.TID 0000.0001) >implicitFreeSurface=.false.,
(PID.TID 0000.0001) >eosType='JMD95Z',
(PID.TID 0000.0001) >saltStepping=.FALSE.,
(PID.TID 0000.0001) >tempStepping=.TRUE.,
(PID.TID 0000.0001) >tempAdvection=.TRUE.,
(PID.TID 0000.0001) >momStepping=.FALSE.,
(PID.TID 0000.0001) >implicitDiffusion=.true.,
(PID.TID 0000.0001) >implicitViscosity=.false.,
(PID.TID 0000.0001) >allowFreezing=.false.,
(PID.TID 0000.0001) >useSingleCpuIO=.TRUE.,
(PID.TID 0000.0001) >useCDscheme=.FALSE.,
(PID.TID 0000.0001) >tempAdvScheme = 3,
(PID.TID 0000.0001) >saltAdvScheme = 3,
(PID.TID 0000.0001) >writeBinaryPrec= 64,
(PID.TID 0000.0001) >/
(PID.TID 0000.0001) >
(PID.TID 0000.0001) ># **************************
(PID.TID 0000.0001) ># Elliptic solver parameters
(PID.TID 0000.0001) ># **************************
(PID.TID 0000.0001) >&PARM02
(PID.TID 0000.0001) >cg2dMaxIters=300,
(PID.TID 0000.0001) >cg2dTargetResidual=1.E-7,
(PID.TID 0000.0001) >/
(PID.TID 0000.0001) >
(PID.TID 0000.0001) ># ************************
(PID.TID 0000.0001) ># Time stepping parameters
(PID.TID 0000.0001) ># ************************
(PID.TID 0000.0001) >&PARM03
(PID.TID 0000.0001) > nIter0=0,
(PID.TID 0000.0001) >#nTimeSteps=86400,
(PID.TID 0000.0001) > nTimeSteps=4,
(PID.TID 0000.0001) > deltaTmom= 3600.,
(PID.TID 0000.0001) > deltaTtracer= 3600.,
(PID.TID 0000.0001) > deltaTClock = 3600.,
(PID.TID 0000.0001) > cAdjFreq    = -1.,
(PID.TID 0000.0001) > abEps=0.1,
(PID.TID 0000.0001) > pChkptFreq  = 31104000.0,
(PID.TID 0000.0001) > chkptFreq   = 31104000.0,
(PID.TID 0000.0001) > dumpFreq    = 31104000.0,
(PID.TID 0000.0001) > taveFreq    = 2592000.,
(PID.TID 0000.0001) >#monitorFreq = 2592000.,
(PID.TID 0000.0001) > monitorFreq = 1.,
(PID.TID 0000.0001) > tauThetaClimRelax=259200.,
(PID.TID 0000.0001) > tauSaltClimRelax=0.,
(PID.TID 0000.0001) > periodicExternalForcing=.TRUE.,
(PID.TID 0000.0001) > externForcingPeriod=2592000.,
(PID.TID 0000.0001) > externForcingCycle=31104000.,
(PID.TID 0000.0001) >/
(PID.TID 0000.0001) >
(PID.TID 0000.0001) ># *******************
(PID.TID 0000.0001) ># Gridding parameters
(PID.TID 0000.0001) ># *******************
(PID.TID 0000.0001) >&PARM04
(PID.TID 0000.0001) >usingCartesianGrid=.FALSE.,
(PID.TID 0000.0001) >usingSphericalPolarGrid=.TRUE.,
(PID.TID 0000.0001) >delX=1*1.E0,
(PID.TID 0000.0001) >delY=1*1.E0,
(PID.TID 0000.0001) >delZ=14*10, 5*15, 4*20, 2*50, 100, 2*150, 200, 300, 3*400, 2*500,
(PID.TID 0000.0001) >xgOrigin=335,
(PID.TID 0000.0001) >ygOrigin=-18.,
(PID.TID 0000.0001) >/
(PID.TID 0000.0001) >
(PID.TID 0000.0001) ># **********
(PID.TID 0000.0001) ># Data Files
(PID.TID 0000.0001) ># **********
(PID.TID 0000.0001) >&PARM05
(PID.TID 0000.0001) >bathyFile=       '../input/input/bathyneg.bin',
(PID.TID 0000.0001) >hydrogThetaFile= '../input/input/loc1_temp_janprof.bin',
(PID.TID 0000.0001) >hydrogSaltFile=  '../input/input/salt_uniform.bin',
(PID.TID 0000.0001) >zonalWindFile=   '',
(PID.TID 0000.0001) >meridWindFile=   '',
(PID.TID 0000.0001) >thetaClimFile=   '../input/input/loc1_temp_monsurf.bin',
(PID.TID 0000.0001) >saltClimFile=    '',
(PID.TID 0000.0001) >surfQFile=       '',
(PID.TID 0000.0001) >EmPmRFile=       '',
(PID.TID 0000.0001) >/
(PID.TID 0000.0001) 
(PID.TID 0000.0001)  INI_PARMS ; starts to read PARM01
(PID.TID 0000.0001)  INI_PARMS ; read PARM01 : OK
(PID.TID 0000.0001)  INI_PARMS ; starts to read PARM02
(PID.TID 0000.0001)  INI_PARMS ; read PARM02 : OK
(PID.TID 0000.0001)  INI_PARMS ; starts to read PARM03
(PID.TID 0000.0001)  INI_PARMS ; read PARM03 : OK
(PID.TID 0000.0001)  INI_PARMS ; starts to read PARM04
(PID.TID 0000.0001)  INI_PARMS ; read PARM04 : OK
(PID.TID 0000.0001)  INI_PARMS ; starts to read PARM05
(PID.TID 0000.0001)  INI_PARMS ; read PARM05 : OK
(PID.TID 0000.0001)  INI_PARMS: finished reading file "data"
(PID.TID 0000.0001)  PACKAGES_BOOT: opening data.pkg
(PID.TID 0000.0001)  OPEN_COPY_DATA_FILE: opening file data.pkg
(PID.TID 0000.0001) // =======================================================
(PID.TID 0000.0001) // Parameter file "data.pkg"
(PID.TID 0000.0001) // =======================================================
(PID.TID 0000.0001) ># Packages
(PID.TID 0000.0001) > &PACKAGES
(PID.TID 0000.0001) > usePTRACERS=.TRUE.
(PID.TID 0000.0001) > useGCHEM=.TRUE.,
(PID.TID 0000.0001) > useKPP=.FALSE.,
(PID.TID 0000.0001) > useMNC=.TRUE.,
(PID.TID 0000.0001) > useEXF=.TRUE,
(PID.TID 0000.0001) > useDIAGNOSTICS=.TRUE,
(PID.TID 0000.0001) > /
(PID.TID 0000.0001) 
(PID.TID 0000.0001)  PACKAGES_BOOT: finished reading data.pkg
(PID.TID 0000.0001)  MNC_READPARMS: opening file 'data.mnc'
(PID.TID 0000.0001)  OPEN_COPY_DATA_FILE: opening file data.mnc
(PID.TID 0000.0001) // =======================================================
(PID.TID 0000.0001) // Parameter file "data.mnc"
(PID.TID 0000.0001) // =======================================================
(PID.TID 0000.0001) ># Example "data.mnc" file
(PID.TID 0000.0001) ># Lines beginning "#" are comments
(PID.TID 0000.0001) > &MNC_01
(PID.TID 0000.0001) ># mnc_echo_gvtypes=.FALSE.,
(PID.TID 0000.0001) ># mnc_use_indir=.FALSE.,
(PID.TID 0000.0001) > mnc_use_outdir=F,
(PID.TID 0000.0001) > mnc_outdir_str='mnc_',
(PID.TID 0000.0001) > mnc_outdir_date=T,
(PID.TID 0000.0001) > monitor_mnc=.FALSE.,
(PID.TID 0000.0001) > snapshot_mnc=.TRUE.,
(PID.TID 0000.0001) > timeave_mnc=.TRUE.,
(PID.TID 0000.0001) > pickup_read_mnc=.FALSE.,
(PID.TID 0000.0001) > pickup_write_mnc=.FALSE.,
(PID.TID 0000.0001) > /
(PID.TID 0000.0001) ># Note: Some systems use & as the
(PID.TID 0000.0001) ># namelist terminator. Other systems
(PID.TID 0000.0001) ># use a / character.
(PID.TID 0000.0001) 
(PID.TID 0000.0001)  MNC_READPARMS: finished reading data.mnc
(PID.TID 0000.0001) CAL_READPARMS: opening data.cal
(PID.TID 0000.0001)  OPEN_COPY_DATA_FILE: opening file data.cal
(PID.TID 0000.0001) // =======================================================
(PID.TID 0000.0001) // Parameter file "data.cal"
(PID.TID 0000.0001) // =======================================================
(PID.TID 0000.0001) >#
(PID.TID 0000.0001) ># *******************
(PID.TID 0000.0001) ># Calendar Parameters
(PID.TID 0000.0001) ># *******************
(PID.TID 0000.0001) > &CAL_NML
(PID.TID 0000.0001) > TheCalendar='model',
(PID.TID 0000.0001) > startDate_1=19920101,
(PID.TID 0000.0001) > startDate_2=000000,
(PID.TID 0000.0001) > calendarDumps = .TRUE.
(PID.TID 0000.0001) > /
(PID.TID 0000.0001) 
(PID.TID 0000.0001) CAL_READPARMS: finished reading data.cal
(PID.TID 0000.0001) EXF_READPARMS: opening data.exf
(PID.TID 0000.0001)  OPEN_COPY_DATA_FILE: opening file data.exf
(PID.TID 0000.0001) // =======================================================
(PID.TID 0000.0001) // Parameter file "data.exf"
(PID.TID 0000.0001) // =======================================================
(PID.TID 0000.0001) ># *********************
(PID.TID 0000.0001) ># External Forcing Data
(PID.TID 0000.0001) ># *********************
(PID.TID 0000.0001) >#
(PID.TID 0000.0001) > &EXF_NML_01
(PID.TID 0000.0001) > exf_albedo        = 0.15,
(PID.TID 0000.0001) > exf_iprec         = 32,
(PID.TID 0000.0001) > exf_yftype        = 'RL',
(PID.TID 0000.0001) > useExfYearlyFields= .TRUE.,
(PID.TID 0000.0001) > twoDigitYear      = .TRUE.,
(PID.TID 0000.0001) > useExfCheckRange  = .FALSE.,
(PID.TID 0000.0001) > /
(PID.TID 0000.0001) >#
(PID.TID 0000.0001) > &EXF_NML_02
(PID.TID 0000.0001) > /
(PID.TID 0000.0001) >#
(PID.TID 0000.0001) > &EXF_NML_03
(PID.TID 0000.0001) > /
(PID.TID 0000.0001) >#
(PID.TID 0000.0001) > &EXF_NML_04
(PID.TID 0000.0001) > /
(PID.TID 0000.0001) >#
(PID.TID 0000.0001) > &EXF_NML_OBCS
(PID.TID 0000.0001) > /
(PID.TID 0000.0001) 
(PID.TID 0000.0001) EXF_READPARMS: reading EXF_NML_01
(PID.TID 0000.0001) EXF_READPARMS: reading EXF_NML_02
(PID.TID 0000.0001) EXF_READPARMS: reading EXF_NML_03
(PID.TID 0000.0001) EXF_READPARMS: finished reading data.exf
(PID.TID 0000.0001)  PTRACERS_READPARMS: opening data.ptracers
(PID.TID 0000.0001)  OPEN_COPY_DATA_FILE: opening file data.ptracers
(PID.TID 0000.0001) // =======================================================
(PID.TID 0000.0001) // Parameter file "data.ptracers"
(PID.TID 0000.0001) // =======================================================
(PID.TID 0000.0001) > &PTRACERS_PARM01
(PID.TID 0000.0001) > PTRACERS_numInUse=175,
(PID.TID 0000.0001) > PTRACERS_Iter0= 0,
(PID.TID 0000.0001) > PTRACERS_advScheme= 175*33,
(PID.TID 0000.0001) > PTRACERS_diffKh=    175*0.E3,
(PID.TID 0000.0001) > PTRACERS_diffKr=    175*1.E-5,
(PID.TID 0000.0001) > PTRACERS_useGMRedi= 175*.FALSE. ,
(PID.TID 0000.0001) >#
(PID.TID 0000.0001) >       PTRACERS_names(1)= 'DIC',
(PID.TID 0000.0001) >       PTRACERS_names(2)= 'NH4',
(PID.TID 0000.0001) >       PTRACERS_names(3)= 'NO2',
(PID.TID 0000.0001) >       PTRACERS_names(4)= 'NO3',
(PID.TID 0000.0001) >       PTRACERS_names(5)= 'PO4',
(PID.TID 0000.0001) >       PTRACERS_names(6)= 'SiO2',
(PID.TID 0000.0001) >       PTRACERS_names(7)= 'FeT',
(PID.TID 0000.0001) >       PTRACERS_names(8)= 'DOC',
(PID.TID 0000.0001) >       PTRACERS_names(9)= 'DON',
(PID.TID 0000.0001) >       PTRACERS_names(10)= 'DOP',
(PID.TID 0000.0001) >       PTRACERS_names(11)= 'DOFe',
(PID.TID 0000.0001) >       PTRACERS_names(12)= 'POC',
(PID.TID 0000.0001) >       PTRACERS_names(13)= 'PON',
(PID.TID 0000.0001) >       PTRACERS_names(14)= 'POP',
(PID.TID 0000.0001) >       PTRACERS_names(15)= 'POSi',
(PID.TID 0000.0001) >       PTRACERS_names(16)= 'POFe',
(PID.TID 0000.0001) >       PTRACERS_names(17)= 'PIC',
(PID.TID 0000.0001) >       PTRACERS_names(18)= 'c01',
(PID.TID 0000.0001) >       PTRACERS_names(19)= 'c02',
(PID.TID 0000.0001) >       PTRACERS_names(20)= 'c03',
(PID.TID 0000.0001) >       PTRACERS_names(21)= 'c04',
(PID.TID 0000.0001) >       PTRACERS_names(22)= 'c05',
(PID.TID 0000.0001) >       PTRACERS_names(23)= 'c06',
(PID.TID 0000.0001) >       PTRACERS_names(24)= 'c07',
(PID.TID 0000.0001) >       PTRACERS_names(25)= 'c08',
(PID.TID 0000.0001) >       PTRACERS_names(26)= 'c09',
(PID.TID 0000.0001) >       PTRACERS_names(27)= 'c10',
(PID.TID 0000.0001) >       PTRACERS_names(28)= 'c11',
(PID.TID 0000.0001) >       PTRACERS_names(29)= 'c12',
(PID.TID 0000.0001) >       PTRACERS_names(30)= 'c13',
(PID.TID 0000.0001) >       PTRACERS_names(31)= 'c14',
(PID.TID 0000.0001) >       PTRACERS_names(32)= 'c15',
(PID.TID 0000.0001) >       PTRACERS_names(33)= 'c16',
(PID.TID 0000.0001) >       PTRACERS_names(34)= 'c17',
(PID.TID 0000.0001) >       PTRACERS_names(35)= 'c18',
(PID.TID 0000.0001) >       PTRACERS_names(36)= 'c19',
(PID.TID 0000.0001) >       PTRACERS_names(37)= 'c20',
(PID.TID 0000.0001) >       PTRACERS_names(38)= 'c21',
(PID.TID 0000.0001) >       PTRACERS_names(39)= 'c22',
(PID.TID 0000.0001) >       PTRACERS_names(40)= 'c23',
(PID.TID 0000.0001) >       PTRACERS_names(41)= 'c24',
(PID.TID 0000.0001) >       PTRACERS_names(42)= 'c25',
(PID.TID 0000.0001) >       PTRACERS_names(43)= 'c26',
(PID.TID 0000.0001) >       PTRACERS_names(44)= 'c27',
(PID.TID 0000.0001) >       PTRACERS_names(45)= 'c28',
(PID.TID 0000.0001) >       PTRACERS_names(46)= 'c29',
(PID.TID 0000.0001) >       PTRACERS_names(47)= 'c30',
(PID.TID 0000.0001) >       PTRACERS_names(48)= 'c31',
(PID.TID 0000.0001) >       PTRACERS_names(49)= 'c32',
(PID.TID 0000.0001) >       PTRACERS_names(50)= 'c33',
(PID.TID 0000.0001) >       PTRACERS_names(51)= 'c34',
(PID.TID 0000.0001) >       PTRACERS_names(52)= 'c35',
(PID.TID 0000.0001) >       PTRACERS_names(53)= 'c36',
(PID.TID 0000.0001) >       PTRACERS_names(54)= 'c37',
(PID.TID 0000.0001) >       PTRACERS_names(55)= 'c38',
(PID.TID 0000.0001) >       PTRACERS_names(56)= 'c39',
(PID.TID 0000.0001) >       PTRACERS_names(57)= 'c40',
(PID.TID 0000.0001) >       PTRACERS_names(58)= 'c41',
(PID.TID 0000.0001) >       PTRACERS_names(59)= 'c42',
(PID.TID 0000.0001) >       PTRACERS_names(60)= 'c43',
(PID.TID 0000.0001) >       PTRACERS_names(61)= 'c44',
(PID.TID 0000.0001) >       PTRACERS_names(62)= 'c45',
(PID.TID 0000.0001) >       PTRACERS_names(63)= 'c46',
(PID.TID 0000.0001) >       PTRACERS_names(64)= 'c47',
(PID.TID 0000.0001) >       PTRACERS_names(65)= 'c48',
(PID.TID 0000.0001) >       PTRACERS_names(66)= 'c49',
(PID.TID 0000.0001) >       PTRACERS_names(67)= 'c50',
(PID.TID 0000.0001) >       PTRACERS_names(68)= 'c51',
(PID.TID 0000.0001) >       PTRACERS_names(69)= 'c52',
(PID.TID 0000.0001) >       PTRACERS_names(70)= 'c53',
(PID.TID 0000.0001) >       PTRACERS_names(71)= 'c54',
(PID.TID 0000.0001) >       PTRACERS_names(72)= 'c55',
(PID.TID 0000.0001) >       PTRACERS_names(73)= 'c56',
(PID.TID 0000.0001) >       PTRACERS_names(74)= 'c57',
(PID.TID 0000.0001) >       PTRACERS_names(75)= 'c58',
(PID.TID 0000.0001) >       PTRACERS_names(76)= 'c59',
(PID.TID 0000.0001) >       PTRACERS_names(77)= 'c60',
(PID.TID 0000.0001) >       PTRACERS_names(78)= 'c61',
(PID.TID 0000.0001) >       PTRACERS_names(79)= 'c62',
(PID.TID 0000.0001) >       PTRACERS_names(80)= 'c63',
(PID.TID 0000.0001) >       PTRACERS_names(81)= 'c64',
(PID.TID 0000.0001) >       PTRACERS_names(82)= 'c65',
(PID.TID 0000.0001) >       PTRACERS_names(83)= 'c66',
(PID.TID 0000.0001) >       PTRACERS_names(84)= 'c67',
(PID.TID 0000.0001) >       PTRACERS_names(85)= 'c68',
(PID.TID 0000.0001) >       PTRACERS_names(86)= 'c69',
(PID.TID 0000.0001) >       PTRACERS_names(87)= 'c70',
(PID.TID 0000.0001) >       PTRACERS_names(88)= 'c71',
(PID.TID 0000.0001) >       PTRACERS_names(89)= 'c72',
(PID.TID 0000.0001) >       PTRACERS_names(90)= 'c73',
(PID.TID 0000.0001) >       PTRACERS_names(91)= 'c74',
(PID.TID 0000.0001) >       PTRACERS_names(92)= 'c75',
(PID.TID 0000.0001) >       PTRACERS_names(93)= 'c76',
(PID.TID 0000.0001) >       PTRACERS_names(94)= 'c77',
(PID.TID 0000.0001) >       PTRACERS_names(95)= 'c78',
(PID.TID 0000.0001) > PTRACERS_names(96)= 'zc1',
(PID.TID 0000.0001) > PTRACERS_names(97)= 'zc2',
(PID.TID 0000.0001) >       PTRACERS_names(98)= 'Chl01',
(PID.TID 0000.0001) >       PTRACERS_names(99)= 'Chl02',
(PID.TID 0000.0001) >       PTRACERS_names(100)= 'Chl03',
(PID.TID 0000.0001) >       PTRACERS_names(101)= 'Chl04',
(PID.TID 0000.0001) >       PTRACERS_names(102)= 'Chl05',
(PID.TID 0000.0001) >       PTRACERS_names(103)= 'Chl06',
(PID.TID 0000.0001) >       PTRACERS_names(104)= 'Chl07',
(PID.TID 0000.0001) >       PTRACERS_names(105)= 'Chl08',
(PID.TID 0000.0001) >       PTRACERS_names(106)= 'Chl09',
(PID.TID 0000.0001) >       PTRACERS_names(107)= 'Chl10',
(PID.TID 0000.0001) >       PTRACERS_names(108)= 'Chl11',
(PID.TID 0000.0001) >       PTRACERS_names(109)= 'Chl12',
(PID.TID 0000.0001) >       PTRACERS_names(110)= 'Chl13',
(PID.TID 0000.0001) >       PTRACERS_names(111)= 'Chl14',
(PID.TID 0000.0001) >       PTRACERS_names(112)= 'Chl15',
(PID.TID 0000.0001) >       PTRACERS_names(113)= 'Chl16',
(PID.TID 0000.0001) >       PTRACERS_names(114)= 'Chl17',
(PID.TID 0000.0001) >       PTRACERS_names(115)= 'Chl18',
(PID.TID 0000.0001) >       PTRACERS_names(116)= 'Chl19',
(PID.TID 0000.0001) >       PTRACERS_names(117)= 'Chl20',
(PID.TID 0000.0001) >       PTRACERS_names(118)= 'Chl21',
(PID.TID 0000.0001) >       PTRACERS_names(119)= 'Chl22',
(PID.TID 0000.0001) >       PTRACERS_names(120)= 'Chl23',
(PID.TID 0000.0001) >       PTRACERS_names(121)= 'Chl24',
(PID.TID 0000.0001) >       PTRACERS_names(122)= 'Chl25',
(PID.TID 0000.0001) >       PTRACERS_names(123)= 'Chl26',
(PID.TID 0000.0001) >       PTRACERS_names(124)= 'Chl27',
(PID.TID 0000.0001) >       PTRACERS_names(125)= 'Chl28',
(PID.TID 0000.0001) >       PTRACERS_names(126)= 'Chl29',
(PID.TID 0000.0001) >       PTRACERS_names(127)= 'Chl30',
(PID.TID 0000.0001) >       PTRACERS_names(128)= 'Chl31',
(PID.TID 0000.0001) >       PTRACERS_names(129)= 'Chl32',
(PID.TID 0000.0001) >       PTRACERS_names(130)= 'Chl33',
(PID.TID 0000.0001) >       PTRACERS_names(131)= 'Chl34',
(PID.TID 0000.0001) >       PTRACERS_names(132)= 'Chl35',
(PID.TID 0000.0001) >       PTRACERS_names(133)= 'Chl36',
(PID.TID 0000.0001) >       PTRACERS_names(134)= 'Chl37',
(PID.TID 0000.0001) >       PTRACERS_names(135)= 'Chl38',
(PID.TID 0000.0001) >       PTRACERS_names(136)= 'Chl39',
(PID.TID 0000.0001) >       PTRACERS_names(137)= 'Chl40',
(PID.TID 0000.0001) >       PTRACERS_names(138)= 'Chl41',
(PID.TID 0000.0001) >       PTRACERS_names(139)= 'Chl42',
(PID.TID 0000.0001) >       PTRACERS_names(140)= 'Chl43',
(PID.TID 0000.0001) >       PTRACERS_names(141)= 'Chl44',
(PID.TID 0000.0001) >       PTRACERS_names(142)= 'Chl45',
(PID.TID 0000.0001) >       PTRACERS_names(143)= 'Chl46',
(PID.TID 0000.0001) >       PTRACERS_names(144)= 'Chl47',
(PID.TID 0000.0001) >       PTRACERS_names(145)= 'Chl48',
(PID.TID 0000.0001) >       PTRACERS_names(146)= 'Chl49',
(PID.TID 0000.0001) >       PTRACERS_names(147)= 'Chl50',
(PID.TID 0000.0001) >       PTRACERS_names(148)= 'Chl51',
(PID.TID 0000.0001) >       PTRACERS_names(149)= 'Chl52',
(PID.TID 0000.0001) >       PTRACERS_names(150)= 'Chl53',
(PID.TID 0000.0001) >       PTRACERS_names(151)= 'Chl54',
(PID.TID 0000.0001) >       PTRACERS_names(152)= 'Chl55',
(PID.TID 0000.0001) >       PTRACERS_names(153)= 'Chl56',
(PID.TID 0000.0001) >       PTRACERS_names(154)= 'Chl57',
(PID.TID 0000.0001) >       PTRACERS_names(155)= 'Chl58',
(PID.TID 0000.0001) >       PTRACERS_names(156)= 'Chl59',
(PID.TID 0000.0001) >       PTRACERS_names(157)= 'Chl60',
(PID.TID 0000.0001) >       PTRACERS_names(158)= 'Chl61',
(PID.TID 0000.0001) >       PTRACERS_names(159)= 'Chl62',
(PID.TID 0000.0001) >       PTRACERS_names(160)= 'Chl63',
(PID.TID 0000.0001) >       PTRACERS_names(161)= 'Chl64',
(PID.TID 0000.0001) >       PTRACERS_names(162)= 'Chl65',
(PID.TID 0000.0001) >       PTRACERS_names(163)= 'Chl66',
(PID.TID 0000.0001) >       PTRACERS_names(164)= 'Chl67',
(PID.TID 0000.0001) >       PTRACERS_names(165)= 'Chl68',
(PID.TID 0000.0001) >       PTRACERS_names(166)= 'Chl69',
(PID.TID 0000.0001) >       PTRACERS_names(167)= 'Chl70',
(PID.TID 0000.0001) >       PTRACERS_names(168)= 'Chl71',
(PID.TID 0000.0001) >       PTRACERS_names(169)= 'Chl72',
(PID.TID 0000.0001) >       PTRACERS_names(170)= 'Chl73',
(PID.TID 0000.0001) >       PTRACERS_names(171)= 'Chl74',
(PID.TID 0000.0001) >       PTRACERS_names(172)= 'Chl75',
(PID.TID 0000.0001) >       PTRACERS_names(173)= 'Chl76',
(PID.TID 0000.0001) >       PTRACERS_names(174)= 'Chl77',
(PID.TID 0000.0001) >       PTRACERS_names(175)= 'Chl78',
(PID.TID 0000.0001) >#
(PID.TID 0000.0001) > PTRACERS_units(1)='mmol C/m^3'
(PID.TID 0000.0001) > PTRACERS_units(2)='mmol N/m^3'
(PID.TID 0000.0001) > PTRACERS_units(3)='mmol N/m^3'
(PID.TID 0000.0001) > PTRACERS_units(4)='mmol N/m^3'
(PID.TID 0000.0001) > PTRACERS_units(5)='mmol P/m^3'
(PID.TID 0000.0001) > PTRACERS_units(6)='mmol Si/m^3'
(PID.TID 0000.0001) > PTRACERS_units(7)='mmol Fe/m^3'
(PID.TID 0000.0001) > PTRACERS_units(8)='mmol C/m^3'
(PID.TID 0000.0001) > PTRACERS_units(9)='mmol N/m^3'
(PID.TID 0000.0001) > PTRACERS_units(10)='mmol P/m^3'
(PID.TID 0000.0001) > PTRACERS_units(11)='mmol Fe/m^3'
(PID.TID 0000.0001) > PTRACERS_units(12)='mmol C/m^3'
(PID.TID 0000.0001) > PTRACERS_units(13)='mmol N/m^3'
(PID.TID 0000.0001) > PTRACERS_units(14)='mmol P/m^3'
(PID.TID 0000.0001) > PTRACERS_units(15)='mmol Si/m^3'
(PID.TID 0000.0001) > PTRACERS_units(16)='mmol Fe/m^3'
(PID.TID 0000.0001) > PTRACERS_units(17)='mmol C/m^3'
(PID.TID 0000.0001) > PTRACERS_units(18:97)=80*'mmol C/m^3'
(PID.TID 0000.0001) > PTRACERS_units(98:175)=78*'mg Chl a/m^3'
(PID.TID 0000.0001) >#
(PID.TID 0000.0001) > PTRACERS_ref(1:35,   1)= 35*2e3,
(PID.TID 0000.0001) > PTRACERS_initialFile(2)='input/loc1_NH4_run83_janprof.bin',
(PID.TID 0000.0001) > PTRACERS_initialFile(3)='input/loc1_NO2_run83_janprof.bin',
(PID.TID 0000.0001) > PTRACERS_initialFile(4)='input/loc1_nitr_janprof.bin',
(PID.TID 0000.0001) > PTRACERS_initialFile(5)='input/loc1_phos_janprof.bin',
(PID.TID 0000.0001) > PTRACERS_initialFile(6)='input/loc1_sil_janprof.bin',
(PID.TID 0000.0001) > PTRACERS_initialFile(7)='input/fet_uniform.bin',
(PID.TID 0000.0001) > PTRACERS_ref(1:35,   8)= 35*0e0,
(PID.TID 0000.0001) > PTRACERS_initialFile(9)='input/loc1_DON_run83_janprof.bin',
(PID.TID 0000.0001) > PTRACERS_initialFile(10)='input/loc1_DOP_run83_janprof.bin',
(PID.TID 0000.0001) > PTRACERS_initialFile(11)='input/loc1_DOFe_run83_janprof.bin',
(PID.TID 0000.0001) > PTRACERS_ref(1:35,   12)= 35*0e0,
(PID.TID 0000.0001) > PTRACERS_initialFile(13)='input/loc1_PON_run83_janprof.bin',
(PID.TID 0000.0001) > PTRACERS_initialFile(14)='input/loc1_POP_run83_janprof.bin',
(PID.TID 0000.0001) > PTRACERS_initialFile(15)='input/loc1_POSi_run83_janprof.bin',
(PID.TID 0000.0001) > PTRACERS_initialFile(16)='input/loc1_POFe_run83_janprof.bin',
(PID.TID 0000.0001) > PTRACERS_ref(1:35,   17)= 35*0e0,
(PID.TID 0000.0001) > PTRACERS_initialFile(18:95)=78*'input/loc1_biomass_run83_janprof.bin',
(PID.TID 0000.0001) > PTRACERS_initialFile(96)='input/loc1_ZOOP_run83_janprof.bin',
(PID.TID 0000.0001) > PTRACERS_initialFile(97)='input/loc1_ZOOP_run83_janprof.bin',
(PID.TID 0000.0001) ># rest zero
(PID.TID 0000.0001) > /
(PID.TID 0000.0001) 
(PID.TID 0000.0001)  PTRACERS_READPARMS: finished reading data.ptracers
(PID.TID 0000.0001)  GCHEM_READPARMS: opening data.gchem
(PID.TID 0000.0001)  OPEN_COPY_DATA_FILE: opening file data.gchem
(PID.TID 0000.0001) // =======================================================
(PID.TID 0000.0001) // Parameter file "data.gchem"
(PID.TID 0000.0001) // =======================================================
(PID.TID 0000.0001) > &GCHEM_PARM01
(PID.TID 0000.0001) >  useDARWIN=.TRUE.,
(PID.TID 0000.0001) >  nsubtime=1,
(PID.TID 0000.0001) > /
(PID.TID 0000.0001) 
(PID.TID 0000.0001)  GCHEM_READPARMS: finished reading data.gchem
(PID.TID 0000.0001)  DARWIN_READPARMS: opening data.darwin
(PID.TID 0000.0001)  OPEN_COPY_DATA_FILE: opening file data.darwin
(PID.TID 0000.0001) // =======================================================
(PID.TID 0000.0001) // Parameter file "data.darwin"
(PID.TID 0000.0001) // =======================================================
(PID.TID 0000.0001) > &DARWIN_FORCING_PARAMS
(PID.TID 0000.0001) > ironFile='input/loc1_FeFlux_monsurf.bin',
(PID.TID 0000.0001) > PARFile='input/loc1_PAR_monsurf.bin',
(PID.TID 0000.0001) > ironPeriod= -12.,
(PID.TID 0000.0001) > PARPeriod= -12.,
(PID.TID 0000.0001) > darwin_inscal_iron= 1000.,
(PID.TID 0000.0001) > darwin_inscal_PAR= 11.574074074074074,
(PID.TID 0000.0001) > /
(PID.TID 0000.0001) > &DARWIN_PARAMS
(PID.TID 0000.0001) > darwin_seed= 11231,
(PID.TID 0000.0001) > darwin_chlInitBalanced=.TRUE.,
(PID.TID 0000.0001) > darwin_read_phos=.TRUE.,
(PID.TID 0000.0001) > /
(PID.TID 0000.0001) > &DARWIN_TRAIT_PARAMS
(PID.TID 0000.0001) > /
(PID.TID 0000.0001) > &DARWIN_ALLOMETRIC_PARAMS
(PID.TID 0000.0001) > /
(PID.TID 0000.0001) > &DARWIN_TRAITS
(PID.TID 0000.0001) > /
(PID.TID 0000.0001) 
(PID.TID 0000.0001) QQ random port_rand            11231   0.4077530000000000
(PID.TID 0000.0001)  ===================================
(PID.TID 0000.0001)  DIAGNOSTICS_READPARMS: opening data.diagnostics
(PID.TID 0000.0001)  OPEN_COPY_DATA_FILE: opening file data.diagnostics
(PID.TID 0000.0001) // =======================================================
(PID.TID 0000.0001) // Parameter file "data.diagnostics"
(PID.TID 0000.0001) // =======================================================
(PID.TID 0000.0001) > &diagnostics_list
(PID.TID 0000.0001) > filename(1)= 'darwin',
(PID.TID 0000.0001) > frequency(1)= 3600.,
(PID.TID 0000.0001) > fields(1,1)= 'TRAC01  ',
(PID.TID 0000.0001) > fields(2,1)= 'TRAC02  ',
(PID.TID 0000.0001) > fields(3,1)= 'TRAC03  ',
(PID.TID 0000.0001) > fields(4,1)= 'TRAC04  ',
(PID.TID 0000.0001) > fields(5,1)= 'TRAC05  ',
(PID.TID 0000.0001) > fields(6,1)= 'TRAC06  ',
(PID.TID 0000.0001) > fields(7,1)= 'TRAC07  ',
(PID.TID 0000.0001) > fields(8,1)= 'TRAC08  ',
(PID.TID 0000.0001) > fields(9,1)= 'TRAC09  ',
(PID.TID 0000.0001) > fields(10,1)= 'TRAC10  ',
(PID.TID 0000.0001) > fields(11,1)= 'TRAC11  ',
(PID.TID 0000.0001) > fields(12,1)= 'TRAC12  ',
(PID.TID 0000.0001) > fields(13,1)= 'TRAC13  ',
(PID.TID 0000.0001) > fields(14,1)= 'TRAC14  ',
(PID.TID 0000.0001) > fields(15,1)= 'TRAC15  ',
(PID.TID 0000.0001) > fields(16,1)= 'TRAC16  ',
(PID.TID 0000.0001) > fields(17,1)= 'TRAC17  ',
(PID.TID 0000.0001) > fields(18,1)= 'TRAC18  ',
(PID.TID 0000.0001) > fields(19,1)= 'TRAC19  ',
(PID.TID 0000.0001) > fields(20,1)= 'TRAC20  ',
(PID.TID 0000.0001) > fields(21,1)= 'TRAC21  ',
(PID.TID 0000.0001) > fields(22,1)= 'TRAC22  ',
(PID.TID 0000.0001) > fields(23,1)= 'TRAC23  ',
(PID.TID 0000.0001) > fields(24,1)= 'TRAC24  ',
(PID.TID 0000.0001) > fields(25,1)= 'TRAC25  ',
(PID.TID 0000.0001) > fields(26,1)= 'TRAC26  ',
(PID.TID 0000.0001) > fields(27,1)= 'TRAC27  ',
(PID.TID 0000.0001) > fields(28,1)= 'TRAC28  ',
(PID.TID 0000.0001) > fields(29,1)= 'TRAC29  ',
(PID.TID 0000.0001) > fields(30,1)= 'TRAC30  ',
(PID.TID 0000.0001) > fields(31,1)= 'TRAC31  ',
(PID.TID 0000.0001) > fields(32,1)= 'TRAC32  ',
(PID.TID 0000.0001) > fields(33,1)= 'TRAC33  ',
(PID.TID 0000.0001) > fields(34,1)= 'TRAC34  ',
(PID.TID 0000.0001) > fields(35,1)= 'TRAC35  ',
(PID.TID 0000.0001) > fields(36,1)= 'TRAC36  ',
(PID.TID 0000.0001) > fields(37,1)= 'TRAC37  ',
(PID.TID 0000.0001) > fields(38,1)= 'TRAC38  ',
(PID.TID 0000.0001) > fields(39,1)= 'TRAC39  ',
(PID.TID 0000.0001) > fields(40,1)= 'TRAC40  ',
(PID.TID 0000.0001) > fields(41,1)= 'TRAC41  ',
(PID.TID 0000.0001) > fields(42,1)= 'TRAC42  ',
(PID.TID 0000.0001) > fields(43,1)= 'TRAC43  ',
(PID.TID 0000.0001) > fields(44,1)= 'TRAC44  ',
(PID.TID 0000.0001) > fields(45,1)= 'TRAC45  ',
(PID.TID 0000.0001) > fields(46,1)= 'TRAC46  ',
(PID.TID 0000.0001) > fields(47,1)= 'TRAC47  ',
(PID.TID 0000.0001) > fields(48,1)= 'TRAC48  ',
(PID.TID 0000.0001) > fields(49,1)= 'TRAC49  ',
(PID.TID 0000.0001) > fields(50,1)= 'TRAC50  ',
(PID.TID 0000.0001) > fields(51,1)= 'TRAC51  ',
(PID.TID 0000.0001) > fields(52,1)= 'TRAC52  ',
(PID.TID 0000.0001) > fields(53,1)= 'TRAC53  ',
(PID.TID 0000.0001) > fields(54,1)= 'TRAC54  ',
(PID.TID 0000.0001) > fields(55,1)= 'TRAC55  ',
(PID.TID 0000.0001) > fields(56,1)= 'TRAC56  ',
(PID.TID 0000.0001) > fields(57,1)= 'TRAC57  ',
(PID.TID 0000.0001) > fields(58,1)= 'TRAC58  ',
(PID.TID 0000.0001) > fields(59,1)= 'TRAC59  ',
(PID.TID 0000.0001) > fields(60,1)= 'TRAC60  ',
(PID.TID 0000.0001) > fields(61,1)= 'TRAC61  ',
(PID.TID 0000.0001) > fields(62,1)= 'TRAC62  ',
(PID.TID 0000.0001) > fields(63,1)= 'TRAC63  ',
(PID.TID 0000.0001) > fields(64,1)= 'TRAC64  ',
(PID.TID 0000.0001) > fields(65,1)= 'TRAC65  ',
(PID.TID 0000.0001) > fields(66,1)= 'TRAC66  ',
(PID.TID 0000.0001) > fields(67,1)= 'TRAC67  ',
(PID.TID 0000.0001) > fields(68,1)= 'TRAC68  ',
(PID.TID 0000.0001) > fields(69,1)= 'TRAC69  ',
(PID.TID 0000.0001) > fields(70,1)= 'TRAC70  ',
(PID.TID 0000.0001) > fields(71,1)= 'TRAC71  ',
(PID.TID 0000.0001) > fields(72,1)= 'TRAC72  ',
(PID.TID 0000.0001) > fields(73,1)= 'TRAC73  ',
(PID.TID 0000.0001) > fields(74,1)= 'TRAC74  ',
(PID.TID 0000.0001) > fields(75,1)= 'TRAC75  ',
(PID.TID 0000.0001) > fields(76,1)= 'TRAC76  ',
(PID.TID 0000.0001) > fields(77,1)= 'TRAC77  ',
(PID.TID 0000.0001) > fields(78,1)= 'TRAC78  ',
(PID.TID 0000.0001) > fields(79,1)= 'TRAC79  ',
(PID.TID 0000.0001) > fields(80,1)= 'TRAC80  ',
(PID.TID 0000.0001) > fields(81,1)= 'TRAC81  ',
(PID.TID 0000.0001) > fields(82,1)= 'TRAC82  ',
(PID.TID 0000.0001) > fields(83,1)= 'TRAC83  ',
(PID.TID 0000.0001) > fields(84,1)= 'TRAC84  ',
(PID.TID 0000.0001) > fields(85,1)= 'TRAC85  ',
(PID.TID 0000.0001) > fields(86,1)= 'TRAC86  ',
(PID.TID 0000.0001) > fields(87,1)= 'TRAC87  ',
(PID.TID 0000.0001) > fields(88,1)= 'TRAC88  ',
(PID.TID 0000.0001) > fields(89,1)= 'TRAC89  ',
(PID.TID 0000.0001) > fields(90,1)= 'TRAC90  ',
(PID.TID 0000.0001) > fields(91,1)= 'TRAC91  ',
(PID.TID 0000.0001) > fields(92,1)= 'TRAC92  ',
(PID.TID 0000.0001) > fields(93,1)= 'TRAC93  ',
(PID.TID 0000.0001) > fields(94,1)= 'TRAC94  ',
(PID.TID 0000.0001) > fields(95,1)= 'TRAC95  ',
(PID.TID 0000.0001) > fields(96,1)= 'TRAC96  ',
(PID.TID 0000.0001) > fields(97,1)= 'TRAC97  ',
(PID.TID 0000.0001) > fields(98,1)= 'TRAC98  ',
(PID.TID 0000.0001) > fields(99,1)= 'TRAC99  ',
(PID.TID 0000.0001) > fields(100,1)= 'TRAC0a  ',
(PID.TID 0000.0001) > fields(101,1)= 'TRAC0b  ',
(PID.TID 0000.0001) > fields(102,1)= 'TRAC0c  ',
(PID.TID 0000.0001) > fields(103,1)= 'TRAC0d  ',
(PID.TID 0000.0001) > fields(104,1)= 'TRAC0e  ',
(PID.TID 0000.0001) > fields(105,1)= 'TRAC0f  ',
(PID.TID 0000.0001) > fields(106,1)= 'TRAC0g  ',
(PID.TID 0000.0001) > fields(107,1)= 'TRAC0h  ',
(PID.TID 0000.0001) > fields(108,1)= 'TRAC0i  ',
(PID.TID 0000.0001) > fields(109,1)= 'TRAC0j  ',
(PID.TID 0000.0001) > fields(110,1)= 'TRAC0k  ',
(PID.TID 0000.0001) > fields(111,1)= 'TRAC0l  ',
(PID.TID 0000.0001) > fields(112,1)= 'TRAC0m  ',
(PID.TID 0000.0001) > fields(113,1)= 'TRAC0n  ',
(PID.TID 0000.0001) > fields(114,1)= 'TRAC0o  ',
(PID.TID 0000.0001) > fields(115,1)= 'TRAC0p  ',
(PID.TID 0000.0001) > fields(116,1)= 'TRAC0q  ',
(PID.TID 0000.0001) > fields(117,1)= 'TRAC0r  ',
(PID.TID 0000.0001) > fields(118,1)= 'TRAC0s  ',
(PID.TID 0000.0001) > fields(119,1)= 'TRAC0t  ',
(PID.TID 0000.0001) > fields(120,1)= 'TRAC0u  ',
(PID.TID 0000.0001) > fields(121,1)= 'TRAC0v  ',
(PID.TID 0000.0001) > fields(122,1)= 'TRAC0w  ',
(PID.TID 0000.0001) > fields(123,1)= 'TRAC0x  ',
(PID.TID 0000.0001) > fields(124,1)= 'TRAC0y  ',
(PID.TID 0000.0001) > fields(125,1)= 'TRAC0z  ',
(PID.TID 0000.0001) > fields(126,1)= 'TRAC0A  ',
(PID.TID 0000.0001) > fields(127,1)= 'TRAC0B  ',
(PID.TID 0000.0001) > fields(128,1)= 'TRAC0C  ',
(PID.TID 0000.0001) > fields(129,1)= 'TRAC0D  ',
(PID.TID 0000.0001) > fields(130,1)= 'TRAC0E  ',
(PID.TID 0000.0001) > fields(131,1)= 'TRAC0F  ',
(PID.TID 0000.0001) > fields(132,1)= 'TRAC0G  ',
(PID.TID 0000.0001) > fields(133,1)= 'TRAC0H  ',
(PID.TID 0000.0001) > fields(134,1)= 'TRAC0I  ',
(PID.TID 0000.0001) > fields(135,1)= 'TRAC0J  ',
(PID.TID 0000.0001) > fields(136,1)= 'TRAC0K  ',
(PID.TID 0000.0001) > fields(137,1)= 'TRAC0L  ',
(PID.TID 0000.0001) > fields(138,1)= 'TRAC0M  ',
(PID.TID 0000.0001) > fields(139,1)= 'TRAC0N  ',
(PID.TID 0000.0001) > fields(140,1)= 'TRAC0O  ',
(PID.TID 0000.0001) > fields(141,1)= 'TRAC0P  ',
(PID.TID 0000.0001) > fields(142,1)= 'TRAC0Q  ',
(PID.TID 0000.0001) > fields(143,1)= 'TRAC0R  ',
(PID.TID 0000.0001) > fields(144,1)= 'TRAC0S  ',
(PID.TID 0000.0001) > fields(145,1)= 'TRAC0T  ',
(PID.TID 0000.0001) > fields(146,1)= 'TRAC0U  ',
(PID.TID 0000.0001) > fields(147,1)= 'TRAC0V  ',
(PID.TID 0000.0001) > fields(148,1)= 'TRAC0W  ',
(PID.TID 0000.0001) > fields(149,1)= 'TRAC0X  ',
(PID.TID 0000.0001) > fields(150,1)= 'TRAC0Y  ',
(PID.TID 0000.0001) > fields(151,1)= 'TRAC0Z  ',
(PID.TID 0000.0001) > fields(152,1)= 'TRAC1a  ',
(PID.TID 0000.0001) > fields(153,1)= 'TRAC1b  ',
(PID.TID 0000.0001) > fields(154,1)= 'TRAC1c  ',
(PID.TID 0000.0001) > fields(155,1)= 'TRAC1d  ',
(PID.TID 0000.0001) > fields(156,1)= 'TRAC1e  ',
(PID.TID 0000.0001) > fields(157,1)= 'TRAC1f  ',
(PID.TID 0000.0001) > fields(158,1)= 'TRAC1g  ',
(PID.TID 0000.0001) > fields(159,1)= 'TRAC1h  ',
(PID.TID 0000.0001) > fields(160,1)= 'TRAC1i  ',
(PID.TID 0000.0001) > fields(161,1)= 'TRAC1j  ',
(PID.TID 0000.0001) > fields(162,1)= 'TRAC1k  ',
(PID.TID 0000.0001) > fields(163,1)= 'TRAC1l  ',
(PID.TID 0000.0001) > fields(164,1)= 'TRAC1m  ',
(PID.TID 0000.0001) > fields(165,1)= 'TRAC1n  ',
(PID.TID 0000.0001) > fields(166,1)= 'TRAC1o  ',
(PID.TID 0000.0001) > fields(167,1)= 'TRAC1p  ',
(PID.TID 0000.0001) > fields(168,1)= 'TRAC1q  ',
(PID.TID 0000.0001) > fields(169,1)= 'TRAC1r  ',
(PID.TID 0000.0001) > fields(170,1)= 'TRAC1s  ',
(PID.TID 0000.0001) > fields(171,1)= 'TRAC1t  ',
(PID.TID 0000.0001) > fields(172,1)= 'TRAC1u  ',
(PID.TID 0000.0001) > fields(173,1)= 'TRAC1v  ',
(PID.TID 0000.0001) > fields(174,1)= 'TRAC1w  ',
(PID.TID 0000.0001) > fields(175,1)= 'TRAC1x  ',
(PID.TID 0000.0001) > fields(176,1)= 'PAR01   ',
(PID.TID 0000.0001) > fields(177,1)= 'DIC_c01 ',
(PID.TID 0000.0001) > fields(178,1)= 'DIC_c02 ',
(PID.TID 0000.0001) > fields(179,1)= 'c01_DOC ',
(PID.TID 0000.0001) > fields(180,1)= 'c02_DOC ',
(PID.TID 0000.0001) > fields(181,1)= 'c01_POC ',
(PID.TID 0000.0001) > fields(182,1)= 'c02_POC ',
(PID.TID 0000.0001) > fields(183,1)= 'PARF    ',
(PID.TID 0000.0001) > fields(184,1)= 'atten   ',
(PID.TID 0000.0001) > fields(185,1)= 'surfPAR ',
(PID.TID 0000.0001) > fields(186,1)= 'exfPAR  ',
(PID.TID 0000.0001) > fields(187,1)= 'limn01  ',
(PID.TID 0000.0001) > fields(188,1)= 'limp01  ',
(PID.TID 0000.0001) > fields(189,1)= 'limsi01 ',
(PID.TID 0000.0001) > fields(190,1)= 'limfe01 ',
(PID.TID 0000.0001) > fields(191,1)= 'limI01  ',
(PID.TID 0000.0001) > fields(192,1)= 'limT01  ',
(PID.TID 0000.0001) > fields(193,1)= 'c01_c   ',
(PID.TID 0000.0001) > fields(194,1)= 'c02_c   ',
(PID.TID 0000.0001) > fields(195,1)= 'c_c03   ',
(PID.TID 0000.0001) > fields(196,1)= 'c_c04   ',
(PID.TID 0000.0001) > fields(197,1)= 'c_DOC   ',
(PID.TID 0000.0001) > fields(198,1)= 'c_POC   ',
(PID.TID 0000.0001) > fields(199,1)= 'c_PIC   ',
(PID.TID 0000.0001) > fields(200,1)= 'n_DON   ',
(PID.TID 0000.0001) > fields(201,1)= 'n_PON   ',
(PID.TID 0000.0001) > fields(202,1)= 'p_DOP   ',
(PID.TID 0000.0001) > fields(203,1)= 'p_POP   ',
(PID.TID 0000.0001) > /
(PID.TID 0000.0001) > &diag_statis_parms
(PID.TID 0000.0001) > /
(PID.TID 0000.0001) 
(PID.TID 0000.0001) S/R DIAGNOSTICS_READPARMS, read namelist "diagnostics_list": start
(PID.TID 0000.0001) S/R DIAGNOSTICS_READPARMS, read namelist "diagnostics_list": OK
(PID.TID 0000.0001) S/R DIAGNOSTICS_READPARMS, read namelist "DIAG_STATIS_PARMS": start
(PID.TID 0000.0001) S/R DIAGNOSTICS_READPARMS, read namelist "DIAG_STATIS_PARMS": OK
(PID.TID 0000.0001)  DIAGNOSTICS_READPARMS: global parameter summary:
(PID.TID 0000.0001)  dumpAtLast = /* always write time-ave diags at the end */
(PID.TID 0000.0001)                   F
(PID.TID 0000.0001)     ;
(PID.TID 0000.0001)  diag_mnc =   /* write NetCDF output files */
(PID.TID 0000.0001)                   T
(PID.TID 0000.0001)     ;
(PID.TID 0000.0001)  useMissingValue = /* put MissingValue where mask = 0 */
(PID.TID 0000.0001)                   F
(PID.TID 0000.0001)     ;
(PID.TID 0000.0001)  diagCG_maxIters = /* max number of iters in diag_cg2d */
(PID.TID 0000.0001)                     300
(PID.TID 0000.0001)     ;
(PID.TID 0000.0001)  diagCG_resTarget = /* residual target for diag_cg2d */
(PID.TID 0000.0001)                 1.000000000000000E-07
(PID.TID 0000.0001)     ;
(PID.TID 0000.0001) -----------------------------------------------------
(PID.TID 0000.0001)  DIAGNOSTICS_READPARMS: active diagnostics summary:
(PID.TID 0000.0001) -----------------------------------------------------
(PID.TID 0000.0001) Creating Output Stream: darwin
(PID.TID 0000.0001) Output Frequency:       3600.000000 ; Phase:           0.000000
(PID.TID 0000.0001)  Averaging Freq.:       3600.000000 , Phase:           0.000000 , Cycle:   1
(PID.TID 0000.0001)  missing value:  1.234567000000E+05 ; for integers:   123456789
(PID.TID 0000.0001)  Levels:    will be set later
(PID.TID 0000.0001)  Fields:    TRAC01   TRAC02   TRAC03   TRAC04   TRAC05   TRAC06   TRAC07   TRAC08   TRAC09   TRAC10
(PID.TID 0000.0001)  Fields:    TRAC11   TRAC12   TRAC13   TRAC14   TRAC15   TRAC16   TRAC17   TRAC18   TRAC19   TRAC20
(PID.TID 0000.0001)  Fields:    TRAC21   TRAC22   TRAC23   TRAC24   TRAC25   TRAC26   TRAC27   TRAC28   TRAC29   TRAC30
(PID.TID 0000.0001)  Fields:    TRAC31   TRAC32   TRAC33   TRAC34   TRAC35   TRAC36   TRAC37   TRAC38   TRAC39   TRAC40
(PID.TID 0000.0001)  Fields:    TRAC41   TRAC42   TRAC43   TRAC44   TRAC45   TRAC46   TRAC47   TRAC48   TRAC49   TRAC50
(PID.TID 0000.0001)  Fields:    TRAC51   TRAC52   TRAC53   TRAC54   TRAC55   TRAC56   TRAC57   TRAC58   TRAC59   TRAC60
(PID.TID 0000.0001)  Fields:    TRAC61   TRAC62   TRAC63   TRAC64   TRAC65   TRAC66   TRAC67   TRAC68   TRAC69   TRAC70
(PID.TID 0000.0001)  Fields:    TRAC71   TRAC72   TRAC73   TRAC74   TRAC75   TRAC76   TRAC77   TRAC78   TRAC79   TRAC80
(PID.TID 0000.0001)  Fields:    TRAC81   TRAC82   TRAC83   TRAC84   TRAC85   TRAC86   TRAC87   TRAC88   TRAC89   TRAC90
(PID.TID 0000.0001)  Fields:    TRAC91   TRAC92   TRAC93   TRAC94   TRAC95   TRAC96   TRAC97   TRAC98   TRAC99   TRAC0a
(PID.TID 0000.0001)  Fields:    TRAC0b   TRAC0c   TRAC0d   TRAC0e   TRAC0f   TRAC0g   TRAC0h   TRAC0i   TRAC0j   TRAC0k
(PID.TID 0000.0001)  Fields:    TRAC0l   TRAC0m   TRAC0n   TRAC0o   TRAC0p   TRAC0q   TRAC0r   TRAC0s   TRAC0t   TRAC0u
(PID.TID 0000.0001)  Fields:    TRAC0v   TRAC0w   TRAC0x   TRAC0y   TRAC0z   TRAC0A   TRAC0B   TRAC0C   TRAC0D   TRAC0E
(PID.TID 0000.0001)  Fields:    TRAC0F   TRAC0G   TRAC0H   TRAC0I   TRAC0J   TRAC0K   TRAC0L   TRAC0M   TRAC0N   TRAC0O
(PID.TID 0000.0001)  Fields:    TRAC0P   TRAC0Q   TRAC0R   TRAC0S   TRAC0T   TRAC0U   TRAC0V   TRAC0W   TRAC0X   TRAC0Y
(PID.TID 0000.0001)  Fields:    TRAC0Z   TRAC1a   TRAC1b   TRAC1c   TRAC1d   TRAC1e   TRAC1f   TRAC1g   TRAC1h   TRAC1i
(PID.TID 0000.0001)  Fields:    TRAC1j   TRAC1k   TRAC1l   TRAC1m   TRAC1n   TRAC1o   TRAC1p   TRAC1q   TRAC1r   TRAC1s
(PID.TID 0000.0001)  Fields:    TRAC1t   TRAC1u   TRAC1v   TRAC1w   TRAC1x   PAR01    DIC_c01  DIC_c02  c01_DOC  c02_DOC
(PID.TID 0000.0001)  Fields:    c01_POC  c02_POC  PARF     atten    surfPAR  exfPAR   limn01   limp01   limsi01  limfe01
(PID.TID 0000.0001)  Fields:    limI01   limT01   c01_c    c02_c    c_c03    c_c04    c_DOC    c_POC    c_PIC    n_DON
(PID.TID 0000.0001)  Fields:    n_PON    p_DOP    p_POP
(PID.TID 0000.0001) -----------------------------------------------------
(PID.TID 0000.0001)  DIAGNOSTICS_READPARMS: statistics diags. summary:
(PID.TID 0000.0001) -----------------------------------------------------
(PID.TID 0000.0001) 
(PID.TID 0000.0001) SET_PARMS: done
(PID.TID 0000.0001) Enter INI_VERTICAL_GRID: setInterFDr=    T ; setCenterDr=    F
(PID.TID 0000.0001) %MON XC_max                       =   3.35500000000000000E+02
(PID.TID 0000.0001) %MON XC_min                       =   3.35500000000000000E+02
(PID.TID 0000.0001) %MON XC_mean                      =   3.35500000000000000E+02
(PID.TID 0000.0001) %MON XC_sd                        =   0.00000000000000000E+00
(PID.TID 0000.0001) %MON XG_max                       =   3.35000000000000000E+02
(PID.TID 0000.0001) %MON XG_min                       =   3.35000000000000000E+02
(PID.TID 0000.0001) %MON XG_mean                      =   3.35000000000000000E+02
(PID.TID 0000.0001) %MON XG_sd                        =   0.00000000000000000E+00
(PID.TID 0000.0001) %MON DXC_max                      =   1.06031840877198687E+05
(PID.TID 0000.0001) %MON DXC_min                      =   1.06031840877198687E+05
(PID.TID 0000.0001) %MON DXC_mean                     =   1.06031840877198687E+05
(PID.TID 0000.0001) %MON DXC_sd                       =   0.00000000000000000E+00
(PID.TID 0000.0001) %MON DXF_max                      =   1.06031840877198687E+05
(PID.TID 0000.0001) %MON DXF_min                      =   1.06031840877198687E+05
(PID.TID 0000.0001) %MON DXF_mean                     =   1.06031840877198687E+05
(PID.TID 0000.0001) %MON DXF_sd                       =   0.00000000000000000E+00
(PID.TID 0000.0001) %MON DXG_max                      =   1.05736060496687278E+05
(PID.TID 0000.0001) %MON DXG_min                      =   1.05736060496687278E+05
(PID.TID 0000.0001) %MON DXG_mean                     =   1.05736060496687278E+05
(PID.TID 0000.0001) %MON DXG_sd                       =   0.00000000000000000E+00
(PID.TID 0000.0001) %MON DXV_max                      =   1.05736060496687278E+05
(PID.TID 0000.0001) %MON DXV_min                      =   1.05736060496687278E+05
(PID.TID 0000.0001) %MON DXV_mean                     =   1.05736060496687278E+05
(PID.TID 0000.0001) %MON DXV_sd                       =   0.00000000000000000E+00
(PID.TID 0000.0001) %MON YC_max                       =  -1.75000000000000000E+01
(PID.TID 0000.0001) %MON YC_min                       =  -1.75000000000000000E+01
(PID.TID 0000.0001) %MON YC_mean                      =  -1.75000000000000000E+01
(PID.TID 0000.0001) %MON YC_sd                        =   0.00000000000000000E+00
(PID.TID 0000.0001) %MON YG_max                       =  -1.80000000000000000E+01
(PID.TID 0000.0001) %MON YG_min                       =  -1.80000000000000000E+01
(PID.TID 0000.0001) %MON YG_mean                      =  -1.80000000000000000E+01
(PID.TID 0000.0001) %MON YG_sd                        =   0.00000000000000000E+00
(PID.TID 0000.0001) %MON DYC_max                      =   1.11177473352038796E+05
(PID.TID 0000.0001) %MON DYC_min                      =   1.11177473352038796E+05
(PID.TID 0000.0001) %MON DYC_mean                     =   1.11177473352038796E+05
(PID.TID 0000.0001) %MON DYC_sd                       =   0.00000000000000000E+00
(PID.TID 0000.0001) %MON DYF_max                      =   1.11177473352038796E+05
(PID.TID 0000.0001) %MON DYF_min                      =   1.11177473352038796E+05
(PID.TID 0000.0001) %MON DYF_mean                     =   1.11177473352038796E+05
(PID.TID 0000.0001) %MON DYF_sd                       =   0.00000000000000000E+00
(PID.TID 0000.0001) %MON DYG_max                      =   1.11177473352038796E+05
(PID.TID 0000.0001) %MON DYG_min                      =   1.11177473352038796E+05
(PID.TID 0000.0001) %MON DYG_mean                     =   1.11177473352038796E+05
(PID.TID 0000.0001) %MON DYG_sd                       =   0.00000000000000000E+00
(PID.TID 0000.0001) %MON DYU_max                      =   1.11177473352038796E+05
(PID.TID 0000.0001) %MON DYU_min                      =   1.11177473352038796E+05
(PID.TID 0000.0001) %MON DYU_mean                     =   1.11177473352038796E+05
(PID.TID 0000.0001) %MON DYU_sd                       =   0.00000000000000000E+00
(PID.TID 0000.0001) %MON RA_max                       =   1.17882025417695599E+10
(PID.TID 0000.0001) %MON RA_min                       =   1.17882025417695599E+10
(PID.TID 0000.0001) %MON RA_mean                      =   1.17882025417695599E+10
(PID.TID 0000.0001) %MON RA_sd                        =   0.00000000000000000E+00
(PID.TID 0000.0001) %MON RAW_max                      =   1.17882025417695599E+10
(PID.TID 0000.0001) %MON RAW_min                      =   1.17882025417695599E+10
(PID.TID 0000.0001) %MON RAW_mean                     =   1.17882025417695599E+10
(PID.TID 0000.0001) %MON RAW_sd                       =   0.00000000000000000E+00
(PID.TID 0000.0001) %MON RAS_max                      =   1.17553188437737656E+10
(PID.TID 0000.0001) %MON RAS_min                      =   1.17553188437737656E+10
(PID.TID 0000.0001) %MON RAS_mean                     =   1.17553188437737656E+10
(PID.TID 0000.0001) %MON RAS_sd                       =   0.00000000000000000E+00
(PID.TID 0000.0001) %MON RAZ_max                      =   1.17553188437737656E+10
(PID.TID 0000.0001) %MON RAZ_min                      =   1.17553188437737656E+10
(PID.TID 0000.0001) %MON RAZ_mean                     =   1.17553188437737656E+10
(PID.TID 0000.0001) %MON RAZ_sd                       =   0.00000000000000000E+00
(PID.TID 0000.0001) %MON AngleCS_max                  =   1.00000000000000000E+00
(PID.TID 0000.0001) %MON AngleCS_min                  =   1.00000000000000000E+00
(PID.TID 0000.0001) %MON AngleCS_mean                 =   1.00000000000000000E+00
(PID.TID 0000.0001) %MON AngleCS_sd                   =   0.00000000000000000E+00
(PID.TID 0000.0001) %MON AngleSN_max                  =   0.00000000000000000E+00
(PID.TID 0000.0001) %MON AngleSN_min                  =   0.00000000000000000E+00
(PID.TID 0000.0001) %MON AngleSN_mean                 =   0.00000000000000000E+00
(PID.TID 0000.0001) %MON AngleSN_sd                   =   0.00000000000000000E+00
(PID.TID 0000.0001)  MDS_READ_FIELD: opening global file: ../input/input/bathyneg.bin
(PID.TID 0000.0001) // =======================================================
(PID.TID 0000.0001) // Field Model R_low (ini_masks_etc)
(PID.TID 0000.0001) // CMIN =         -3.495000000000000E+03
(PID.TID 0000.0001) // CMAX =         -3.495000000000000E+03
(PID.TID 0000.0001) // CINT =          0.000000000000000E+00
(PID.TID 0000.0001) // SYMBOLS (CMIN->CMAX): -abcdefghijklmnopqrstuvwxyz+
(PID.TID 0000.0001) //                  0.0: .
(PID.TID 0000.0001) // RANGE I (Lo:Hi:Step):(    -1:     3:     1)
(PID.TID 0000.0001) // RANGE J (Lo:Hi:Step):(     3:    -1:    -1)
(PID.TID 0000.0001) // RANGE K (Lo:Hi:Step):(   1:   1:   1)
(PID.TID 0000.0001) // =======================================================
(PID.TID 0000.0001) // =======================================================
(PID.TID 0000.0001) // END OF FIELD                                          =
(PID.TID 0000.0001) // =======================================================
(PID.TID 0000.0001) 
(PID.TID 0000.0001) // =======================================================
(PID.TID 0000.0001) // Field Model Ro_surf (ini_masks_etc)
(PID.TID 0000.0001) // CMIN =          1.000000000000000E+32
(PID.TID 0000.0001) // CMAX =         -1.000000000000000E+32
(PID.TID 0000.0001) // CINT =          0.000000000000000E+00
(PID.TID 0000.0001) // SYMBOLS (CMIN->CMAX): -abcdefghijklmnopqrstuvwxyz+
(PID.TID 0000.0001) //                  0.0: .
(PID.TID 0000.0001) // RANGE I (Lo:Hi:Step):(    -1:     3:     1)
(PID.TID 0000.0001) // RANGE J (Lo:Hi:Step):(     3:    -1:    -1)
(PID.TID 0000.0001) // RANGE K (Lo:Hi:Step):(   1:   1:   1)
(PID.TID 0000.0001) // =======================================================
(PID.TID 0000.0001) // =======================================================
(PID.TID 0000.0001) // END OF FIELD                                          =
(PID.TID 0000.0001) // =======================================================
(PID.TID 0000.0001) 
(PID.TID 0000.0001) // =======================================================
(PID.TID 0000.0001) // Field hFacC at iteration          0
(PID.TID 0000.0001) // CMIN =          1.000000000000000E+00
(PID.TID 0000.0001) // CMAX =          1.000000000000000E+00
(PID.TID 0000.0001) // CINT =          0.000000000000000E+00
(PID.TID 0000.0001) // SYMBOLS (CMIN->CMAX): -abcdefghijklmnopqrstuvwxyz+
(PID.TID 0000.0001) //                  0.0: .
(PID.TID 0000.0001) // RANGE I (Lo:Hi:Step):(    -1:     3:     1)
(PID.TID 0000.0001) // RANGE J (Lo:Hi:Step):(     3:    -1:    -1)
(PID.TID 0000.0001) // RANGE K (Lo:Hi:Step):(   1:   1:   1)
(PID.TID 0000.0001) // =======================================================
(PID.TID 0000.0001) // =======================================================
(PID.TID 0000.0001) // END OF FIELD                                          =
(PID.TID 0000.0001) // =======================================================
(PID.TID 0000.0001) 
(PID.TID 0000.0001) // =======================================================
(PID.TID 0000.0001) // Field hFacW at iteration          0
(PID.TID 0000.0001) // CMIN =          1.000000000000000E+00
(PID.TID 0000.0001) // CMAX =          1.000000000000000E+00
(PID.TID 0000.0001) // CINT =          0.000000000000000E+00
(PID.TID 0000.0001) // SYMBOLS (CMIN->CMAX): -abcdefghijklmnopqrstuvwxyz+
(PID.TID 0000.0001) //                  0.0: .
(PID.TID 0000.0001) // RANGE I (Lo:Hi:Step):(    -1:     3:     1)
(PID.TID 0000.0001) // RANGE J (Lo:Hi:Step):(     3:    -1:    -1)
(PID.TID 0000.0001) // RANGE K (Lo:Hi:Step):(   1:   1:   1)
(PID.TID 0000.0001) // =======================================================
(PID.TID 0000.0001) // =======================================================
(PID.TID 0000.0001) // END OF FIELD                                          =
(PID.TID 0000.0001) // =======================================================
(PID.TID 0000.0001) 
(PID.TID 0000.0001) // =======================================================
(PID.TID 0000.0001) // Field hFacS at iteration          0
(PID.TID 0000.0001) // CMIN =          1.000000000000000E+00
(PID.TID 0000.0001) // CMAX =          1.000000000000000E+00
(PID.TID 0000.0001) // CINT =          0.000000000000000E+00
(PID.TID 0000.0001) // SYMBOLS (CMIN->CMAX): -abcdefghijklmnopqrstuvwxyz+
(PID.TID 0000.0001) //                  0.0: .
(PID.TID 0000.0001) // RANGE I (Lo:Hi:Step):(    -1:     3:     1)
(PID.TID 0000.0001) // RANGE J (Lo:Hi:Step):(     3:    -1:    -1)
(PID.TID 0000.0001) // RANGE K (Lo:Hi:Step):(   1:   1:   1)
(PID.TID 0000.0001) // =======================================================
(PID.TID 0000.0001) // =======================================================
(PID.TID 0000.0001) // END OF FIELD                                          =
(PID.TID 0000.0001) // =======================================================
(PID.TID 0000.0001) 
(PID.TID 0000.0001) 
(PID.TID 0000.0001) // =======================================================
(PID.TID 0000.0001) // Calendar configuration >>> START <<<
(PID.TID 0000.0001) // =======================================================
(PID.TID 0000.0001) 
(PID.TID 0000.0001) modelstart = /* Start time of the model integration [s] */
(PID.TID 0000.0001)                 0.000000000000000E+00
(PID.TID 0000.0001)     ;
(PID.TID 0000.0001) modelend  = /* End time of the model integration [s] */
(PID.TID 0000.0001)                 1.440000000000000E+04
(PID.TID 0000.0001)     ;
(PID.TID 0000.0001) modelstep = /* Time interval for a model forward step [s] */
(PID.TID 0000.0001)                 3.600000000000000E+03
(PID.TID 0000.0001)     ;
(PID.TID 0000.0001) usingGregorianCalendar= /* Calendar Type: Gregorian Calendar */
(PID.TID 0000.0001)                   F
(PID.TID 0000.0001)     ;
(PID.TID 0000.0001) usingJulianCalendar = /* Calendar Type: Julian Calendar */
(PID.TID 0000.0001)                   F
(PID.TID 0000.0001)     ;
(PID.TID 0000.0001) usingModelCalendar  = /* Calendar Type: Model Calendar */
(PID.TID 0000.0001)                   T
(PID.TID 0000.0001)     ;
(PID.TID 0000.0001) modelstartdate YYYYMMDD = /* Model start date YYYY-MM-DD */
(PID.TID 0000.0001)                19920101
(PID.TID 0000.0001)     ;
(PID.TID 0000.0001)   modelstartdate HHMMSS = /* Model start date HH-MM-SS  */
(PID.TID 0000.0001)                       0
(PID.TID 0000.0001)     ;
(PID.TID 0000.0001) modelenddate   YYYYMMDD = /* Model end date YYYY-MM-DD */
(PID.TID 0000.0001)                19920101
(PID.TID 0000.0001)     ;
(PID.TID 0000.0001)   modelenddate   HHMMSS = /* Model end date HH-MM-SS  */
(PID.TID 0000.0001)                   40000
(PID.TID 0000.0001)     ;
(PID.TID 0000.0001) intyears = /* Number of calendar years affected by the integration */
(PID.TID 0000.0001)                       1
(PID.TID 0000.0001)     ;
(PID.TID 0000.0001) intmonths= /* Number of calendar months affected by the integration */
(PID.TID 0000.0001)                       1
(PID.TID 0000.0001)     ;
(PID.TID 0000.0001) intdays = /* Number of calendar days affected by the integration */
(PID.TID 0000.0001)                       1
(PID.TID 0000.0001)     ;
(PID.TID 0000.0001) modeliter0 = /* Base timestep number  */
(PID.TID 0000.0001)                       0
(PID.TID 0000.0001)     ;
(PID.TID 0000.0001) modeliterend = /* Final timestep number  */
(PID.TID 0000.0001)                       4
(PID.TID 0000.0001)     ;
(PID.TID 0000.0001) modelintsteps= /* Number of model timesteps  */
(PID.TID 0000.0001)                       4
(PID.TID 0000.0001)     ;
(PID.TID 0000.0001) 
(PID.TID 0000.0001) // =======================================================
(PID.TID 0000.0001) // Calendar configuration  >>> END <<<
(PID.TID 0000.0001) // =======================================================
(PID.TID 0000.0001) 
(PID.TID 0000.0001) GAD_INIT_FIXED: GAD_OlMinSize=  2  0  1
(PID.TID 0000.0001) 
(PID.TID 0000.0001) // ===================================
(PID.TID 0000.0001) // GAD parameters :
(PID.TID 0000.0001) // ===================================
(PID.TID 0000.0001) tempAdvScheme =   /* Temp. Horiz.Advection scheme selector */
(PID.TID 0000.0001)                       3
(PID.TID 0000.0001)     ;
(PID.TID 0000.0001) tempVertAdvScheme =   /* Temp. Vert. Advection scheme selector */
(PID.TID 0000.0001)                       3
(PID.TID 0000.0001)     ;
(PID.TID 0000.0001) tempMultiDimAdvec =   /* use Muti-Dim Advec method for Temp */
(PID.TID 0000.0001)                   F
(PID.TID 0000.0001)     ;
(PID.TID 0000.0001) tempSOM_Advection = /* use 2nd Order Moment Advection for Temp */
(PID.TID 0000.0001)                   F
(PID.TID 0000.0001)     ;
(PID.TID 0000.0001) AdamsBashforthGt = /* apply Adams-Bashforth extrapolation on Gt */
(PID.TID 0000.0001)                   T
(PID.TID 0000.0001)     ;
(PID.TID 0000.0001) AdamsBashforth_T = /* apply Adams-Bashforth extrapolation on Temp */
(PID.TID 0000.0001)                   F
(PID.TID 0000.0001)     ;
(PID.TID 0000.0001) saltAdvScheme =   /* Salt. Horiz.advection scheme selector */
(PID.TID 0000.0001)                       3
(PID.TID 0000.0001)     ;
(PID.TID 0000.0001) saltVertAdvScheme =   /* Salt. Vert. Advection scheme selector */
(PID.TID 0000.0001)                       3
(PID.TID 0000.0001)     ;
(PID.TID 0000.0001) saltMultiDimAdvec =   /* use Muti-Dim Advec method for Salt */
(PID.TID 0000.0001)                   F
(PID.TID 0000.0001)     ;
(PID.TID 0000.0001) saltSOM_Advection = /* use 2nd Order Moment Advection for Salt */
(PID.TID 0000.0001)                   F
(PID.TID 0000.0001)     ;
(PID.TID 0000.0001) AdamsBashforthGs = /* apply Adams-Bashforth extrapolation on Gs */
(PID.TID 0000.0001)                   F
(PID.TID 0000.0001)     ;
(PID.TID 0000.0001) AdamsBashforth_S = /* apply Adams-Bashforth extrapolation on Salt */
(PID.TID 0000.0001)                   F
(PID.TID 0000.0001)     ;
(PID.TID 0000.0001) // ===================================
(PID.TID 0000.0001) 
(PID.TID 0000.0001) // =======================================================
(PID.TID 0000.0001) // External forcing (EXF) configuration >>> START <<<
(PID.TID 0000.0001) // =======================================================
(PID.TID 0000.0001) 
(PID.TID 0000.0001)  EXF general parameters:
(PID.TID 0000.0001) 
(PID.TID 0000.0001) exf_iprec = /* exf file precision */
(PID.TID 0000.0001)                      32
(PID.TID 0000.0001)     ;
(PID.TID 0000.0001) useExfYearlyFields = /* add extension _YEAR to input file names */
(PID.TID 0000.0001)                   T
(PID.TID 0000.0001)     ;
(PID.TID 0000.0001) twoDigitYear = /* use 2-digit year extension */
(PID.TID 0000.0001)                   T
(PID.TID 0000.0001)     ;
(PID.TID 0000.0001) exf_verbose = /* print more messages to STDOUT */
(PID.TID 0000.0001)                   F
(PID.TID 0000.0001)     ;
(PID.TID 0000.0001) useExfCheckRange = /* check for fields range */
(PID.TID 0000.0001)                   F
(PID.TID 0000.0001)     ;
(PID.TID 0000.0001) exf_monFreq = /* EXF monitor frequency [ s ] */
(PID.TID 0000.0001)                 1.000000000000000E+00
(PID.TID 0000.0001)     ;
(PID.TID 0000.0001) repeatPeriod = /* period for cycling forcing dataset [ s ] */
(PID.TID 0000.0001)                 0.000000000000000E+00
(PID.TID 0000.0001)     ;
(PID.TID 0000.0001) climTempFreeze= /* Minimum climatological temperature [deg.C] */
(PID.TID 0000.0001)                -1.900000000000000E+00
(PID.TID 0000.0001)     ;
(PID.TID 0000.0001) windStressMax = /* Maximum absolute windstress [ Pa ] */
(PID.TID 0000.0001)                 2.000000000000000E+00
(PID.TID 0000.0001)     ;
(PID.TID 0000.0001) stressIsOnCgrid = /* set u,v_stress on Arakawa C-grid */
(PID.TID 0000.0001)                   F
(PID.TID 0000.0001)     ;
(PID.TID 0000.0001) cen2kel = /* conversion of deg. Centigrade to Kelvin [K] */
(PID.TID 0000.0001)                 2.731500000000000E+02
(PID.TID 0000.0001)     ;
(PID.TID 0000.0001) gravity_mks= /* gravitational acceleration [m/s^2] */
(PID.TID 0000.0001)                 9.810000000000000E+00
(PID.TID 0000.0001)     ;
(PID.TID 0000.0001) atmrho =  /* mean atmospheric density [kg/m^3] */
(PID.TID 0000.0001)                 1.200000000000000E+00
(PID.TID 0000.0001)     ;
(PID.TID 0000.0001) atmcp =  /* mean atmospheric specific heat [J/kg/K] */
(PID.TID 0000.0001)                 1.005000000000000E+03
(PID.TID 0000.0001)     ;
(PID.TID 0000.0001) flamb =  /* latent heat of evaporation [J/kg] */
(PID.TID 0000.0001)                 2.500000000000000E+06
(PID.TID 0000.0001)     ;
(PID.TID 0000.0001) flami =  /* latent heat of pure-ice melting [J/kg] */
(PID.TID 0000.0001)                 3.340000000000000E+05
(PID.TID 0000.0001)     ;
(PID.TID 0000.0001) cvapor_fac = /* const. for Saturation calculation [?] */
(PID.TID 0000.0001)                 6.403800000000000E+05
(PID.TID 0000.0001)     ;
(PID.TID 0000.0001) cvapor_exp = /* const. for Saturation calculation [?] */
(PID.TID 0000.0001)                 5.107400000000000E+03
(PID.TID 0000.0001)     ;
(PID.TID 0000.0001) cvapor_fac_ice= /* const. for Saturation calculation [?] */
(PID.TID 0000.0001)                 1.163780000000000E+07
(PID.TID 0000.0001)     ;
(PID.TID 0000.0001) cvapor_exp_ice= /* const. for Saturation calculation [?] */
(PID.TID 0000.0001)                 5.897800000000000E+03
(PID.TID 0000.0001)     ;
(PID.TID 0000.0001) humid_fac = /* humidity coef. in virtual temp. [(kg/kg)^-1] */
(PID.TID 0000.0001)                 6.060000000000000E-01
(PID.TID 0000.0001)     ;
(PID.TID 0000.0001) gamma_blk = /* adiabatic lapse rate [?] */
(PID.TID 0000.0001)                 1.000000000000000E-02
(PID.TID 0000.0001)     ;
(PID.TID 0000.0001) saltsat = /* reduction of Qsat over salty water [-] */
(PID.TID 0000.0001)                 9.800000000000000E-01
(PID.TID 0000.0001)     ;
(PID.TID 0000.0001) noNegativeEvap = /* prevent negative Evaporation */
(PID.TID 0000.0001)                   F
(PID.TID 0000.0001)     ;
(PID.TID 0000.0001) sstExtrapol = /* extrapolation coeff from lev. 1 & 2 to surf [-] */
(PID.TID 0000.0001)                 0.000000000000000E+00
(PID.TID 0000.0001)     ;
(PID.TID 0000.0001) cDrag_1 = /* coef used in drag calculation [?] */
(PID.TID 0000.0001)                 2.700000000000000E-03
(PID.TID 0000.0001)     ;
(PID.TID 0000.0001) cDrag_2 = /* coef used in drag calculation [?] */
(PID.TID 0000.0001)                 1.420000000000000E-04
(PID.TID 0000.0001)     ;
(PID.TID 0000.0001) cDrag_3 = /* coef used in drag calculation [?] */
(PID.TID 0000.0001)                 7.640000000000000E-05
(PID.TID 0000.0001)     ;
(PID.TID 0000.0001) cStanton_1 = /* coef used in Stanton number calculation [?] */
(PID.TID 0000.0001)                 3.270000000000000E-02
(PID.TID 0000.0001)     ;
(PID.TID 0000.0001) cStanton_2 = /* coef used in Stanton number calculation [?] */
(PID.TID 0000.0001)                 1.800000000000000E-02
(PID.TID 0000.0001)     ;
(PID.TID 0000.0001) cDalton = /* coef used in Dalton number calculation [?] */
(PID.TID 0000.0001)                 3.460000000000000E-02
(PID.TID 0000.0001)     ;
(PID.TID 0000.0001) exf_scal_BulkCdn= /* Drag coefficient scaling factor [-] */
(PID.TID 0000.0001)                 1.000000000000000E+00
(PID.TID 0000.0001)     ;
(PID.TID 0000.0001) zolmin = /* minimum stability parameter [?] */
(PID.TID 0000.0001)                -1.000000000000000E+02
(PID.TID 0000.0001)     ;
(PID.TID 0000.0001) psim_fac = /* coef used in turbulent fluxes calculation [-] */
(PID.TID 0000.0001)                 5.000000000000000E+00
(PID.TID 0000.0001)     ;
(PID.TID 0000.0001) zref =  /* reference height [ m ] */
(PID.TID 0000.0001)                 1.000000000000000E+01
(PID.TID 0000.0001)     ;
(PID.TID 0000.0001) hu =  /* height of mean wind [ m ] */
(PID.TID 0000.0001)                 1.000000000000000E+01
(PID.TID 0000.0001)     ;
(PID.TID 0000.0001) ht =  /* height of mean temperature [ m ] */
(PID.TID 0000.0001)                 2.000000000000000E+00
(PID.TID 0000.0001)     ;
(PID.TID 0000.0001) hq =  /* height of mean spec.humidity [ m ] */
(PID.TID 0000.0001)                 2.000000000000000E+00
(PID.TID 0000.0001)     ;
(PID.TID 0000.0001) uMin = /* minimum wind speed [m/s] */
(PID.TID 0000.0001)                 5.000000000000000E-01
(PID.TID 0000.0001)     ;
(PID.TID 0000.0001) useStabilityFct_overIce= /* transfert Coeffs over sea-ice depend on stability */
(PID.TID 0000.0001)                   F
(PID.TID 0000.0001)     ;
(PID.TID 0000.0001) exf_iceCd = /* drag coefficient over sea-ice (fixed) [-] */
(PID.TID 0000.0001)                 1.630000000000000E-03
(PID.TID 0000.0001)     ;
(PID.TID 0000.0001) exf_iceCe = /* transfert coeff. over sea-ice, for Evap (fixed) [-] */
(PID.TID 0000.0001)                 1.630000000000000E-03
(PID.TID 0000.0001)     ;
(PID.TID 0000.0001) exf_iceCh = /* transfert coeff. over sea-ice, Sens.Heat.(fixed)[-] */
(PID.TID 0000.0001)                 1.630000000000000E-03
(PID.TID 0000.0001)     ;
(PID.TID 0000.0001) exf_albedo =  /* Sea-water albedo [-] */
(PID.TID 0000.0001)                 1.500000000000000E-01
(PID.TID 0000.0001)     ;
(PID.TID 0000.0001) useExfZenAlbedo = /* Sea-water albedo varies with zenith angle */
(PID.TID 0000.0001)                   F
(PID.TID 0000.0001)     ;
(PID.TID 0000.0001) select_ZenAlbedo = /* Sea-water albedo computation method */
(PID.TID 0000.0001)                       0
(PID.TID 0000.0001)     ;
(PID.TID 0000.0001) useExfZenIncoming = /* compute incoming solar radiation */
(PID.TID 0000.0001)                   F
(PID.TID 0000.0001)     ;
(PID.TID 0000.0001) ocean_emissivity = /* longwave ocean-surface emissivity [-] */
(PID.TID 0000.0001)                 9.700176366843034E-01
(PID.TID 0000.0001)     ;
(PID.TID 0000.0001) ice_emissivity = /* longwave seaice emissivity [-] */
(PID.TID 0000.0001)                 9.500000000000000E-01
(PID.TID 0000.0001)     ;
(PID.TID 0000.0001) snow_emissivity = /* longwave snow  emissivity [-] */
(PID.TID 0000.0001)                 9.500000000000000E-01
(PID.TID 0000.0001)     ;
(PID.TID 0000.0001) 
(PID.TID 0000.0001)  EXF main CPP flags:
(PID.TID 0000.0001) 
(PID.TID 0000.0001) // USE_EXF_INTERPOLATION:          NOT defined
(PID.TID 0000.0001) // ALLOW_ATM_TEMP:                     defined
(PID.TID 0000.0001) // ALLOW_ATM_WIND (useAtmWind):        defined
(PID.TID 0000.0001) // ALLOW_DOWNWARD_RADIATION:           defined
(PID.TID 0000.0001) // ALLOW_BULKFORMULAE:                 defined
(PID.TID 0000.0001) 
(PID.TID 0000.0001)    Net shortwave flux forcing starts at                0.
(PID.TID 0000.0001)    Net shortwave flux forcing period is                0.
(PID.TID 0000.0001)    Net shortwave flux forcing is read from file:
(PID.TID 0000.0001)    >>    <<
(PID.TID 0000.0001) 
(PID.TID 0000.0001)    Zonal wind forcing starts at                          0.
(PID.TID 0000.0001)    Zonal wind forcing period is                          0.
(PID.TID 0000.0001)    Zonal wind forcing is read from file:
(PID.TID 0000.0001)    >>    <<
(PID.TID 0000.0001) 
(PID.TID 0000.0001)    Meridional wind forcing starts at                     0.
(PID.TID 0000.0001)    Meridional wind forcing period is                     0.
(PID.TID 0000.0001)    Meridional wind forcing is read from file:
(PID.TID 0000.0001)    >>    <<
(PID.TID 0000.0001) 
(PID.TID 0000.0001)    Atmospheric temperature starts at                     0.
(PID.TID 0000.0001)    Atmospheric temperature period is                     0.
(PID.TID 0000.0001)    Atmospheric temperature is read from file:
(PID.TID 0000.0001)    >>    <<
(PID.TID 0000.0001) 
(PID.TID 0000.0001)    Atmospheric specific humidity starts at               0.
(PID.TID 0000.0001)    Atmospheric specific humidity period is               0.
(PID.TID 0000.0001)    Atmospheric specific humidity is read from file:
(PID.TID 0000.0001)    >>    <<
(PID.TID 0000.0001) 
(PID.TID 0000.0001)    Net longwave flux forcing starts at                 0.
(PID.TID 0000.0001)    Net longwave flux forcing period is                 0.
(PID.TID 0000.0001)    Net longwave flux forcing is read from file:
(PID.TID 0000.0001)    >>    <<
(PID.TID 0000.0001) 
(PID.TID 0000.0001)    Precipitation data set starts at                      0.
(PID.TID 0000.0001)    Precipitation data period is                          0.
(PID.TID 0000.0001)    Precipitation data is read from file:
(PID.TID 0000.0001)    >>    <<
(PID.TID 0000.0001) 
(PID.TID 0000.0001) // EXF_READ_EVAP:                  NOT defined
(PID.TID 0000.0001) 
(PID.TID 0000.0001) // ALLOW_RUNOFF:                       defined
(PID.TID 0000.0001)    Runoff starts at               0.
(PID.TID 0000.0001)    Runoff period is               0.
(PID.TID 0000.0001)    Runoff is read from file:
(PID.TID 0000.0001)    >>    <<
(PID.TID 0000.0001) 
(PID.TID 0000.0001)    Downward shortwave flux forcing starts at                0.
(PID.TID 0000.0001)    Downward shortwave flux forcing period is                0.
(PID.TID 0000.0001)    Downward shortwave flux forcing is read from file:
(PID.TID 0000.0001)    >>    <<
(PID.TID 0000.0001) 
(PID.TID 0000.0001)    Downward longwave flux forcing starts at                 0.
(PID.TID 0000.0001)    Downward longwave flux forcing period is                 0.
(PID.TID 0000.0001)    Downward longwave flux forcing is read from file:
(PID.TID 0000.0001)    >>    <<
(PID.TID 0000.0001) 
(PID.TID 0000.0001)    Atmospheric pressure forcing starts at                0.
(PID.TID 0000.0001)    Atmospheric pressure forcing period is                0.
(PID.TID 0000.0001)    Atmospheric pressureforcing is read from file:
(PID.TID 0000.0001)    >>    <<
(PID.TID 0000.0001) 
(PID.TID 0000.0001) // =======================================================
(PID.TID 0000.0001) // External forcing (EXF) climatology configuration :
(PID.TID 0000.0001) // =======================================================
(PID.TID 0000.0001) 
(PID.TID 0000.0001) // ALLOW_CLIMSST_RELAXATION:       NOT defined
(PID.TID 0000.0001) // ALLOW_CLIMSSS_RELAXATION:       NOT defined
(PID.TID 0000.0001) 
(PID.TID 0000.0001) // =======================================================
(PID.TID 0000.0001) // External forcing (EXF) configuration  >>> END <<<
(PID.TID 0000.0001) // =======================================================
(PID.TID 0000.0001) 
(PID.TID 0000.0001) ------------------------------------------------------------
(PID.TID 0000.0001) DIAGNOSTICS_SET_LEVELS: done
(PID.TID 0000.0001)  Total Nb of available Diagnostics: ndiagt=  3135
(PID.TID 0000.0001)  write list of available Diagnostics to file: available_diagnostics.log
(PID.TID 0000.0001) SETDIAG: Allocate 35 x  1 Levels for Diagnostic #   140 TRAC01
(PID.TID 0000.0001) SETDIAG: Allocate 35 x  1 Levels for Diagnostic #   152 TRAC02
(PID.TID 0000.0001) SETDIAG: Allocate 35 x  1 Levels for Diagnostic #   164 TRAC03
(PID.TID 0000.0001) SETDIAG: Allocate 35 x  1 Levels for Diagnostic #   176 TRAC04
(PID.TID 0000.0001) SETDIAG: Allocate 35 x  1 Levels for Diagnostic #   188 TRAC05
(PID.TID 0000.0001) SETDIAG: Allocate 35 x  1 Levels for Diagnostic #   200 TRAC06
(PID.TID 0000.0001) SETDIAG: Allocate 35 x  1 Levels for Diagnostic #   212 TRAC07
(PID.TID 0000.0001) SETDIAG: Allocate 35 x  1 Levels for Diagnostic #   224 TRAC08
(PID.TID 0000.0001) SETDIAG: Allocate 35 x  1 Levels for Diagnostic #   236 TRAC09
(PID.TID 0000.0001) SETDIAG: Allocate 35 x  1 Levels for Diagnostic #   248 TRAC10
(PID.TID 0000.0001) SETDIAG: Allocate 35 x  1 Levels for Diagnostic #   260 TRAC11
(PID.TID 0000.0001) SETDIAG: Allocate 35 x  1 Levels for Diagnostic #   272 TRAC12
(PID.TID 0000.0001) SETDIAG: Allocate 35 x  1 Levels for Diagnostic #   284 TRAC13
(PID.TID 0000.0001) SETDIAG: Allocate 35 x  1 Levels for Diagnostic #   296 TRAC14
(PID.TID 0000.0001) SETDIAG: Allocate 35 x  1 Levels for Diagnostic #   308 TRAC15
(PID.TID 0000.0001) SETDIAG: Allocate 35 x  1 Levels for Diagnostic #   320 TRAC16
(PID.TID 0000.0001) SETDIAG: Allocate 35 x  1 Levels for Diagnostic #   332 TRAC17
(PID.TID 0000.0001) SETDIAG: Allocate 35 x  1 Levels for Diagnostic #   344 TRAC18
(PID.TID 0000.0001) SETDIAG: Allocate 35 x  1 Levels for Diagnostic #   356 TRAC19
(PID.TID 0000.0001) SETDIAG: Allocate 35 x  1 Levels for Diagnostic #   368 TRAC20
(PID.TID 0000.0001) SETDIAG: Allocate 35 x  1 Levels for Diagnostic #   380 TRAC21
(PID.TID 0000.0001) SETDIAG: Allocate 35 x  1 Levels for Diagnostic #   392 TRAC22
(PID.TID 0000.0001) SETDIAG: Allocate 35 x  1 Levels for Diagnostic #   404 TRAC23
(PID.TID 0000.0001) SETDIAG: Allocate 35 x  1 Levels for Diagnostic #   416 TRAC24
(PID.TID 0000.0001) SETDIAG: Allocate 35 x  1 Levels for Diagnostic #   428 TRAC25
(PID.TID 0000.0001) SETDIAG: Allocate 35 x  1 Levels for Diagnostic #   440 TRAC26
(PID.TID 0000.0001) SETDIAG: Allocate 35 x  1 Levels for Diagnostic #   452 TRAC27
(PID.TID 0000.0001) SETDIAG: Allocate 35 x  1 Levels for Diagnostic #   464 TRAC28
(PID.TID 0000.0001) SETDIAG: Allocate 35 x  1 Levels for Diagnostic #   476 TRAC29
(PID.TID 0000.0001) SETDIAG: Allocate 35 x  1 Levels for Diagnostic #   488 TRAC30
(PID.TID 0000.0001) SETDIAG: Allocate 35 x  1 Levels for Diagnostic #   500 TRAC31
(PID.TID 0000.0001) SETDIAG: Allocate 35 x  1 Levels for Diagnostic #   512 TRAC32
(PID.TID 0000.0001) SETDIAG: Allocate 35 x  1 Levels for Diagnostic #   524 TRAC33
(PID.TID 0000.0001) SETDIAG: Allocate 35 x  1 Levels for Diagnostic #   536 TRAC34
(PID.TID 0000.0001) SETDIAG: Allocate 35 x  1 Levels for Diagnostic #   548 TRAC35
(PID.TID 0000.0001) SETDIAG: Allocate 35 x  1 Levels for Diagnostic #   560 TRAC36
(PID.TID 0000.0001) SETDIAG: Allocate 35 x  1 Levels for Diagnostic #   572 TRAC37
(PID.TID 0000.0001) SETDIAG: Allocate 35 x  1 Levels for Diagnostic #   584 TRAC38
(PID.TID 0000.0001) SETDIAG: Allocate 35 x  1 Levels for Diagnostic #   596 TRAC39
(PID.TID 0000.0001) SETDIAG: Allocate 35 x  1 Levels for Diagnostic #   608 TRAC40
(PID.TID 0000.0001) SETDIAG: Allocate 35 x  1 Levels for Diagnostic #   620 TRAC41
(PID.TID 0000.0001) SETDIAG: Allocate 35 x  1 Levels for Diagnostic #   632 TRAC42
(PID.TID 0000.0001) SETDIAG: Allocate 35 x  1 Levels for Diagnostic #   644 TRAC43
(PID.TID 0000.0001) SETDIAG: Allocate 35 x  1 Levels for Diagnostic #   656 TRAC44
(PID.TID 0000.0001) SETDIAG: Allocate 35 x  1 Levels for Diagnostic #   668 TRAC45
(PID.TID 0000.0001) SETDIAG: Allocate 35 x  1 Levels for Diagnostic #   680 TRAC46
(PID.TID 0000.0001) SETDIAG: Allocate 35 x  1 Levels for Diagnostic #   692 TRAC47
(PID.TID 0000.0001) SETDIAG: Allocate 35 x  1 Levels for Diagnostic #   704 TRAC48
(PID.TID 0000.0001) SETDIAG: Allocate 35 x  1 Levels for Diagnostic #   716 TRAC49
(PID.TID 0000.0001) SETDIAG: Allocate 35 x  1 Levels for Diagnostic #   728 TRAC50
(PID.TID 0000.0001) SETDIAG: Allocate 35 x  1 Levels for Diagnostic #   740 TRAC51
(PID.TID 0000.0001) SETDIAG: Allocate 35 x  1 Levels for Diagnostic #   752 TRAC52
(PID.TID 0000.0001) SETDIAG: Allocate 35 x  1 Levels for Diagnostic #   764 TRAC53
(PID.TID 0000.0001) SETDIAG: Allocate 35 x  1 Levels for Diagnostic #   776 TRAC54
(PID.TID 0000.0001) SETDIAG: Allocate 35 x  1 Levels for Diagnostic #   788 TRAC55
(PID.TID 0000.0001) SETDIAG: Allocate 35 x  1 Levels for Diagnostic #   800 TRAC56
(PID.TID 0000.0001) SETDIAG: Allocate 35 x  1 Levels for Diagnostic #   812 TRAC57
(PID.TID 0000.0001) SETDIAG: Allocate 35 x  1 Levels for Diagnostic #   824 TRAC58
(PID.TID 0000.0001) SETDIAG: Allocate 35 x  1 Levels for Diagnostic #   836 TRAC59
(PID.TID 0000.0001) SETDIAG: Allocate 35 x  1 Levels for Diagnostic #   848 TRAC60
(PID.TID 0000.0001) SETDIAG: Allocate 35 x  1 Levels for Diagnostic #   860 TRAC61
(PID.TID 0000.0001) SETDIAG: Allocate 35 x  1 Levels for Diagnostic #   872 TRAC62
(PID.TID 0000.0001) SETDIAG: Allocate 35 x  1 Levels for Diagnostic #   884 TRAC63
(PID.TID 0000.0001) SETDIAG: Allocate 35 x  1 Levels for Diagnostic #   896 TRAC64
(PID.TID 0000.0001) SETDIAG: Allocate 35 x  1 Levels for Diagnostic #   908 TRAC65
(PID.TID 0000.0001) SETDIAG: Allocate 35 x  1 Levels for Diagnostic #   920 TRAC66
(PID.TID 0000.0001) SETDIAG: Allocate 35 x  1 Levels for Diagnostic #   932 TRAC67
(PID.TID 0000.0001) SETDIAG: Allocate 35 x  1 Levels for Diagnostic #   944 TRAC68
(PID.TID 0000.0001) SETDIAG: Allocate 35 x  1 Levels for Diagnostic #   956 TRAC69
(PID.TID 0000.0001) SETDIAG: Allocate 35 x  1 Levels for Diagnostic #   968 TRAC70
(PID.TID 0000.0001) SETDIAG: Allocate 35 x  1 Levels for Diagnostic #   980 TRAC71
(PID.TID 0000.0001) SETDIAG: Allocate 35 x  1 Levels for Diagnostic #   992 TRAC72
(PID.TID 0000.0001) SETDIAG: Allocate 35 x  1 Levels for Diagnostic #  1004 TRAC73
(PID.TID 0000.0001) SETDIAG: Allocate 35 x  1 Levels for Diagnostic #  1016 TRAC74
(PID.TID 0000.0001) SETDIAG: Allocate 35 x  1 Levels for Diagnostic #  1028 TRAC75
(PID.TID 0000.0001) SETDIAG: Allocate 35 x  1 Levels for Diagnostic #  1040 TRAC76
(PID.TID 0000.0001) SETDIAG: Allocate 35 x  1 Levels for Diagnostic #  1052 TRAC77
(PID.TID 0000.0001) SETDIAG: Allocate 35 x  1 Levels for Diagnostic #  1064 TRAC78
(PID.TID 0000.0001) SETDIAG: Allocate 35 x  1 Levels for Diagnostic #  1076 TRAC79
(PID.TID 0000.0001) SETDIAG: Allocate 35 x  1 Levels for Diagnostic #  1088 TRAC80
(PID.TID 0000.0001) SETDIAG: Allocate 35 x  1 Levels for Diagnostic #  1100 TRAC81
(PID.TID 0000.0001) SETDIAG: Allocate 35 x  1 Levels for Diagnostic #  1112 TRAC82
(PID.TID 0000.0001) SETDIAG: Allocate 35 x  1 Levels for Diagnostic #  1124 TRAC83
(PID.TID 0000.0001) SETDIAG: Allocate 35 x  1 Levels for Diagnostic #  1136 TRAC84
(PID.TID 0000.0001) SETDIAG: Allocate 35 x  1 Levels for Diagnostic #  1148 TRAC85
(PID.TID 0000.0001) SETDIAG: Allocate 35 x  1 Levels for Diagnostic #  1160 TRAC86
[...]
 Computing Diagnostic #   1124  TRAC83       Counter:       1   Parms: SMR     MR      
 Computing Diagnostic #   1136  TRAC84       Counter:       1   Parms: SMR     MR      
 Computing Diagnostic #   1148  TRAC85       Counter:       1   Parms: SMR     MR      
 Computing Diagnostic #   1160  TRAC86       Counter:       1   Parms: SMR     MR      
 Computing Diagnostic #   1172  TRAC87       Counter:       1   Parms: SMR     MR      
 Computing Diagnostic #   1184  TRAC88       Counter:       1   Parms: SMR     MR      
 Computing Diagnostic #   1196  TRAC89       Counter:       1   Parms: SMR     MR      
 Computing Diagnostic #   1208  TRAC90       Counter:       1   Parms: SMR     MR      
 Computing Diagnostic #   1220  TRAC91       Counter:       1   Parms: SMR     MR      
 Computing Diagnostic #   1232  TRAC92       Counter:       1   Parms: SMR     MR      
 Computing Diagnostic #   1244  TRAC93       Counter:       1   Parms: SMR     MR      
 Computing Diagnostic #   1256  TRAC94       Counter:       1   Parms: SMR     MR      
 Computing Diagnostic #   1268  TRAC95       Counter:       1   Parms: SMR     MR      
 Computing Diagnostic #   1280  TRAC96       Counter:       1   Parms: SMR     MR      
 Computing Diagnostic #   1292  TRAC97       Counter:       1   Parms: SMR     MR      
 Computing Diagnostic #   1304  TRAC98       Counter:       1   Parms: SMR     MR      
 Computing Diagnostic #   1316  TRAC99       Counter:       1   Parms: SMR     MR      
 Computing Diagnostic #   1328  TRAC0a       Counter:       1   Parms: SMR     MR      
 Computing Diagnostic #   1340  TRAC0b       Counter:       1   Parms: SMR     MR      
 Computing Diagnostic #   1352  TRAC0c       Counter:       1   Parms: SMR     MR      
 Computing Diagnostic #   1364  TRAC0d       Counter:       1   Parms: SMR     MR      
 Computing Diagnostic #   1376  TRAC0e       Counter:       1   Parms: SMR     MR      
 Computing Diagnostic #   1388  TRAC0f       Counter:       1   Parms: SMR     MR      
 Computing Diagnostic #   1400  TRAC0g       Counter:       1   Parms: SMR     MR      
 Computing Diagnostic #   1412  TRAC0h       Counter:       1   Parms: SMR     MR      
 Computing Diagnostic #   1424  TRAC0i       Counter:       1   Parms: SMR     MR      
 Computing Diagnostic #   1436  TRAC0j       Counter:       1   Parms: SMR     MR      
 Computing Diagnostic #   1448  TRAC0k       Counter:       1   Parms: SMR     MR      
 Computing Diagnostic #   1460  TRAC0l       Counter:       1   Parms: SMR     MR      
 Computing Diagnostic #   1472  TRAC0m       Counter:       1   Parms: SMR     MR      
 Computing Diagnostic #   1484  TRAC0n       Counter:       1   Parms: SMR     MR      
 Computing Diagnostic #   1496  TRAC0o       Counter:       1   Parms: SMR     MR      
 Computing Diagnostic #   1508  TRAC0p       Counter:       1   Parms: SMR     MR      
 Computing Diagnostic #   1520  TRAC0q       Counter:       1   Parms: SMR     MR      
 Computing Diagnostic #   1532  TRAC0r       Counter:       1   Parms: SMR     MR      
 Computing Diagnostic #   1544  TRAC0s       Counter:       1   Parms: SMR     MR      
 Computing Diagnostic #   1556  TRAC0t       Counter:       1   Parms: SMR     MR      
 Computing Diagnostic #   1568  TRAC0u       Counter:       1   Parms: SMR     MR      
 Computing Diagnostic #   1580  TRAC0v       Counter:       1   Parms: SMR     MR      
 Computing Diagnostic #   1592  TRAC0w       Counter:       1   Parms: SMR     MR      
 Computing Diagnostic #   1604  TRAC0x       Counter:       1   Parms: SMR     MR      
 Computing Diagnostic #   1616  TRAC0y       Counter:       1   Parms: SMR     MR      
 Computing Diagnostic #   1628  TRAC0z       Counter:       1   Parms: SMR     MR      
 Computing Diagnostic #   1640  TRAC0A       Counter:       1   Parms: SMR     MR      
 Computing Diagnostic #   1652  TRAC0B       Counter:       1   Parms: SMR     MR      
 Computing Diagnostic #   1664  TRAC0C       Counter:       1   Parms: SMR     MR      
 Computing Diagnostic #   1676  TRAC0D       Counter:       1   Parms: SMR     MR      
 Computing Diagnostic #   1688  TRAC0E       Counter:       1   Parms: SMR     MR      
 Computing Diagnostic #   1700  TRAC0F       Counter:       1   Parms: SMR     MR      
 Computing Diagnostic #   1712  TRAC0G       Counter:       1   Parms: SMR     MR      
 Computing Diagnostic #   1724  TRAC0H       Counter:       1   Parms: SMR     MR      
 Computing Diagnostic #   1736  TRAC0I       Counter:       1   Parms: SMR     MR      
 Computing Diagnostic #   1748  TRAC0J       Counter:       1   Parms: SMR     MR      
 Computing Diagnostic #   1760  TRAC0K       Counter:       1   Parms: SMR     MR      
 Computing Diagnostic #   1772  TRAC0L       Counter:       1   Parms: SMR     MR      
 Computing Diagnostic #   1784  TRAC0M       Counter:       1   Parms: SMR     MR      
 Computing Diagnostic #   1796  TRAC0N       Counter:       1   Parms: SMR     MR      
 Computing Diagnostic #   1808  TRAC0O       Counter:       1   Parms: SMR     MR      
 Computing Diagnostic #   1820  TRAC0P       Counter:       1   Parms: SMR     MR      
 Computing Diagnostic #   1832  TRAC0Q       Counter:       1   Parms: SMR     MR      
 Computing Diagnostic #   1844  TRAC0R       Counter:       1   Parms: SMR     MR      
 Computing Diagnostic #   1856  TRAC0S       Counter:       1   Parms: SMR     MR      
 Computing Diagnostic #   1868  TRAC0T       Counter:       1   Parms: SMR     MR      
 Computing Diagnostic #   1880  TRAC0U       Counter:       1   Parms: SMR     MR      
 Computing Diagnostic #   1892  TRAC0V       Counter:       1   Parms: SMR     MR      
 Computing Diagnostic #   1904  TRAC0W       Counter:       1   Parms: SMR     MR      
 Computing Diagnostic #   1916  TRAC0X       Counter:       1   Parms: SMR     MR      
 Computing Diagnostic #   1928  TRAC0Y       Counter:       1   Parms: SMR     MR      
 Computing Diagnostic #   1940  TRAC0Z       Counter:       1   Parms: SMR     MR      
 Computing Diagnostic #   1952  TRAC1a       Counter:       1   Parms: SMR     MR      
 Computing Diagnostic #   1964  TRAC1b       Counter:       1   Parms: SMR     MR      
 Computing Diagnostic #   1976  TRAC1c       Counter:       1   Parms: SMR     MR      
 Computing Diagnostic #   1988  TRAC1d       Counter:       1   Parms: SMR     MR      
 Computing Diagnostic #   2000  TRAC1e       Counter:       1   Parms: SMR     MR      
 Computing Diagnostic #   2012  TRAC1f       Counter:       1   Parms: SMR     MR      
 Computing Diagnostic #   2024  TRAC1g       Counter:       1   Parms: SMR     MR      
 Computing Diagnostic #   2036  TRAC1h       Counter:       1   Parms: SMR     MR      
 Computing Diagnostic #   2048  TRAC1i       Counter:       1   Parms: SMR     MR      
 Computing Diagnostic #   2060  TRAC1j       Counter:       1   Parms: SMR     MR      
 Computing Diagnostic #   2072  TRAC1k       Counter:       1   Parms: SMR     MR      
 Computing Diagnostic #   2084  TRAC1l       Counter:       1   Parms: SMR     MR      
 Computing Diagnostic #   2096  TRAC1m       Counter:       1   Parms: SMR     MR      
 Computing Diagnostic #   2108  TRAC1n       Counter:       1   Parms: SMR     MR      
 Computing Diagnostic #   2120  TRAC1o       Counter:       1   Parms: SMR     MR      
 Computing Diagnostic #   2132  TRAC1p       Counter:       1   Parms: SMR     MR      
 Computing Diagnostic #   2144  TRAC1q       Counter:       1   Parms: SMR     MR      
 Computing Diagnostic #   2156  TRAC1r       Counter:       1   Parms: SMR     MR      
 Computing Diagnostic #   2168  TRAC1s       Counter:       1   Parms: SMR     MR      
 Computing Diagnostic #   2180  TRAC1t       Counter:       1   Parms: SMR     MR      
 Computing Diagnostic #   2192  TRAC1u       Counter:       1   Parms: SMR     MR      
 Computing Diagnostic #   2204  TRAC1v       Counter:       1   Parms: SMR     MR      
 Computing Diagnostic #   2216  TRAC1w       Counter:       1   Parms: SMR     MR      
 Computing Diagnostic #   2228  TRAC1x       Counter:       1   Parms: SMR     MR      
 Computing Diagnostic #   2245  PAR01        Counter:       2   Parms: SM P    MR      
 Computing Diagnostic #   2252  DIC_c01      Counter:       1   Parms: SM P    MR      
 Computing Diagnostic #   2263  DIC_c02      Counter:       1   Parms: SM P    MR      
 Computing Diagnostic #   2253  c01_DOC      Counter:       1   Parms: SM P    MR      
 Computing Diagnostic #   2264  c02_DOC      Counter:       1   Parms: SM P    MR      
 Computing Diagnostic #   2254  c01_POC      Counter:       1   Parms: SM P    MR      
 Computing Diagnostic #   2265  c02_POC      Counter:       1   Parms: SM P    MR      
 Computing Diagnostic #   2244  PARF         Counter:       1   Parms: SM P    MR      
 Computing Diagnostic #   2241  atten        Counter:       1   Parms: SM P    MR      
 Computing Diagnostic #   2243  surfPAR      Counter:       1   Parms: SM P    MR      
 Computing Diagnostic #   2242  exfPAR       Counter:       1   Parms: SM P    MR      
 Computing Diagnostic #   2246  limn01       Counter:       1   Parms: SM P    MR      
 Computing Diagnostic #   2247  limp01       Counter:       1   Parms: SM P    MR      
 Computing Diagnostic #   2248  limsi01      Counter:       1   Parms: SM P    MR      
 Computing Diagnostic #   2249  limfe01      Counter:       1   Parms: SM P    MR      
 Computing Diagnostic #   2250  limI01       Counter:       1   Parms: SM P    MR      
 Computing Diagnostic #   2251  limT01       Counter:       1   Parms: SM P    MR      
 Computing Diagnostic #   2255  c01_c        Counter:       1   Parms: SM P    MR      
 Computing Diagnostic #   2266  c02_c        Counter:       1   Parms: SM P    MR      
 Computing Diagnostic #   2278  c_c03        Counter:       1   Parms: SM P    MR      
 Computing Diagnostic #   2289  c_c04        Counter:       1   Parms: SM P    MR      
 Computing Diagnostic #   3126  c_DOC        Counter:       1   Parms: SM P    MR      
 Computing Diagnostic #   3127  c_POC        Counter:       1   Parms: SM P    MR      
 Computing Diagnostic #   3128  c_PIC        Counter:       1   Parms: SM P    MR      
 Computing Diagnostic #   3129  n_DON        Counter:       1   Parms: SM P    MR      
 Computing Diagnostic #   3130  n_PON        Counter:       1   Parms: SM P    MR      
 Computing Diagnostic #   3131  p_DOP        Counter:       1   Parms: SM P    MR      
 Computing Diagnostic #   3132  p_POP        Counter:       1   Parms: SM P    MR      
(PID.TID 0000.0001) %CHECKPOINT         4 ckptA
(PID.TID 0000.0001)   Seconds in section "ALL                    [THE_MODEL_MAIN]":
(PID.TID 0000.0001)           User time:   4.5800000000000001
(PID.TID 0000.0001)         System time:  0.20999999999999999
(PID.TID 0000.0001)     Wall clock time:   60.099107980728149
(PID.TID 0000.0001)          No. starts:           1
(PID.TID 0000.0001)           No. stops:           1
(PID.TID 0000.0001)   Seconds in section "INITIALISE_FIXED       [THE_MODEL_MAIN]":
(PID.TID 0000.0001)           User time:  0.79000000000000004
(PID.TID 0000.0001)         System time:   2.0000000000000000E-002
(PID.TID 0000.0001)     Wall clock time:   2.2391488552093506
(PID.TID 0000.0001)          No. starts:           1
(PID.TID 0000.0001)           No. stops:           1
(PID.TID 0000.0001)   Seconds in section "THE_MAIN_LOOP          [THE_MODEL_MAIN]":
(PID.TID 0000.0001)           User time:   3.7900000000000000
(PID.TID 0000.0001)         System time:  0.19000000000000000
(PID.TID 0000.0001)     Wall clock time:   57.859071969985962
(PID.TID 0000.0001)          No. starts:           1
(PID.TID 0000.0001)           No. stops:           1
(PID.TID 0000.0001)   Seconds in section "INITIALISE_VARIA    [THE_MAIN_LOOP]":
(PID.TID 0000.0001)           User time:  0.19999999999999996
(PID.TID 0000.0001)         System time:   3.9999999999999994E-002
(PID.TID 0000.0001)     Wall clock time:   6.2964291572570801
(PID.TID 0000.0001)          No. starts:           1
(PID.TID 0000.0001)           No. stops:           1
(PID.TID 0000.0001)   Seconds in section "MAIN LOOP           [THE_MAIN_LOOP]":
(PID.TID 0000.0001)           User time:   3.5899999999999999
(PID.TID 0000.0001)         System time:  0.14999999999999999
(PID.TID 0000.0001)     Wall clock time:   51.562606811523438
(PID.TID 0000.0001)          No. starts:           1
(PID.TID 0000.0001)           No. stops:           1
(PID.TID 0000.0001)   Seconds in section "FORWARD_STEP        [THE_MAIN_LOOP]":
(PID.TID 0000.0001)           User time:   3.5900000000000003
(PID.TID 0000.0001)         System time:  0.14999999999999999
(PID.TID 0000.0001)     Wall clock time:   51.562545776367188
(PID.TID 0000.0001)          No. starts:           4
(PID.TID 0000.0001)           No. stops:           4
(PID.TID 0000.0001)   Seconds in section "DO_STATEVARS_DIAGS  [FORWARD_STEP]":
(PID.TID 0000.0001)           User time:   1.0000000000000231E-002
(PID.TID 0000.0001)         System time:   0.0000000000000000
(PID.TID 0000.0001)     Wall clock time:   1.8716335296630859E-002
(PID.TID 0000.0001)          No. starts:           8
(PID.TID 0000.0001)           No. stops:           8
(PID.TID 0000.0001)   Seconds in section "LOAD_FIELDS_DRIVER  [FORWARD_STEP]":
(PID.TID 0000.0001)           User time:   2.0000000000000018E-002
(PID.TID 0000.0001)         System time:   0.0000000000000000
(PID.TID 0000.0001)     Wall clock time:   3.7300586700439453E-003
(PID.TID 0000.0001)          No. starts:           4
(PID.TID 0000.0001)           No. stops:           4
(PID.TID 0000.0001)   Seconds in section "EXF_GETFORCING     [LOAD_FLDS_DRIVER]":
(PID.TID 0000.0001)           User time:   1.0000000000000231E-002
(PID.TID 0000.0001)         System time:   0.0000000000000000
(PID.TID 0000.0001)     Wall clock time:   2.8791427612304688E-003
(PID.TID 0000.0001)          No. starts:           4
(PID.TID 0000.0001)           No. stops:           4
(PID.TID 0000.0001)   Seconds in section "EXTERNAL_FLDS_LOAD [LOAD_FLDS_DRIVER]":
(PID.TID 0000.0001)           User time:   0.0000000000000000
(PID.TID 0000.0001)         System time:   0.0000000000000000
(PID.TID 0000.0001)     Wall clock time:   2.6988983154296875E-004
(PID.TID 0000.0001)          No. starts:           4
(PID.TID 0000.0001)           No. stops:           4
(PID.TID 0000.0001)   Seconds in section "DO_ATMOSPHERIC_PHYS [FORWARD_STEP]":
(PID.TID 0000.0001)           User time:   0.0000000000000000
(PID.TID 0000.0001)         System time:   0.0000000000000000
(PID.TID 0000.0001)     Wall clock time:   4.5776367187500000E-005
(PID.TID 0000.0001)          No. starts:           4
(PID.TID 0000.0001)           No. stops:           4
(PID.TID 0000.0001)   Seconds in section "DO_OCEANIC_PHYS     [FORWARD_STEP]":
(PID.TID 0000.0001)           User time:   9.9999999999997868E-003
(PID.TID 0000.0001)         System time:   0.0000000000000000
(PID.TID 0000.0001)     Wall clock time:   1.2540817260742188E-003
(PID.TID 0000.0001)          No. starts:           4
(PID.TID 0000.0001)           No. stops:           4
(PID.TID 0000.0001)   Seconds in section "GCHEM_CALC_TENDENCY [FORWARD_STEP]":
(PID.TID 0000.0001)           User time:   0.0000000000000000
(PID.TID 0000.0001)         System time:   0.0000000000000000
(PID.TID 0000.0001)     Wall clock time:   3.9815902709960938E-005
(PID.TID 0000.0001)          No. starts:           4
(PID.TID 0000.0001)           No. stops:           4
(PID.TID 0000.0001)   Seconds in section "THERMODYNAMICS      [FORWARD_STEP]":
(PID.TID 0000.0001)           User time:  0.39999999999999947
(PID.TID 0000.0001)         System time:   0.0000000000000000
(PID.TID 0000.0001)     Wall clock time:  0.41668391227722168
(PID.TID 0000.0001)          No. starts:           4
(PID.TID 0000.0001)           No. stops:           4
(PID.TID 0000.0001)   Seconds in section "TRC_CORRECTION_STEP [FORWARD_STEP]":
(PID.TID 0000.0001)           User time:   4.0000000000000036E-002
(PID.TID 0000.0001)         System time:   0.0000000000000000
(PID.TID 0000.0001)     Wall clock time:   2.8184890747070313E-002
(PID.TID 0000.0001)          No. starts:           4
(PID.TID 0000.0001)           No. stops:           4
(PID.TID 0000.0001)   Seconds in section "GCHEM_FORCING_SEP  [FORWARD_STEP]":
(PID.TID 0000.0001)           User time:   8.0000000000000071E-002
(PID.TID 0000.0001)         System time:   0.0000000000000000
(PID.TID 0000.0001)     Wall clock time:   9.9184036254882813E-002
(PID.TID 0000.0001)          No. starts:           4
(PID.TID 0000.0001)           No. stops:           4
(PID.TID 0000.0001)   Seconds in section "BLOCKING_EXCHANGES  [FORWARD_STEP]":
(PID.TID 0000.0001)           User time:   2.9999999999999361E-002
(PID.TID 0000.0001)         System time:   0.0000000000000000
(PID.TID 0000.0001)     Wall clock time:   2.2156953811645508E-002
(PID.TID 0000.0001)          No. starts:           4
(PID.TID 0000.0001)           No. stops:           4
(PID.TID 0000.0001)   Seconds in section "DO_STATEVARS_TAVE   [FORWARD_STEP]":
(PID.TID 0000.0001)           User time:   0.0000000000000000
(PID.TID 0000.0001)         System time:   0.0000000000000000
(PID.TID 0000.0001)     Wall clock time:   2.2265911102294922E-003
(PID.TID 0000.0001)          No. starts:           4
(PID.TID 0000.0001)           No. stops:           4
(PID.TID 0000.0001)   Seconds in section "MONITOR             [FORWARD_STEP]":
(PID.TID 0000.0001)           User time:   0.0000000000000000
(PID.TID 0000.0001)         System time:   0.0000000000000000
(PID.TID 0000.0001)     Wall clock time:   4.2681694030761719E-003
(PID.TID 0000.0001)          No. starts:           4
(PID.TID 0000.0001)           No. stops:           4
(PID.TID 0000.0001)   Seconds in section "DO_THE_MODEL_IO     [FORWARD_STEP]":
(PID.TID 0000.0001)           User time:   2.9900000000000011
(PID.TID 0000.0001)         System time:  0.14999999999999999
(PID.TID 0000.0001)     Wall clock time:   50.956385135650635
(PID.TID 0000.0001)          No. starts:           4
(PID.TID 0000.0001)           No. stops:           4
(PID.TID 0000.0001)   Seconds in section "DO_WRITE_PICKUP     [FORWARD_STEP]":
(PID.TID 0000.0001)           User time:   9.9999999999997868E-003
(PID.TID 0000.0001)         System time:   0.0000000000000000
(PID.TID 0000.0001)     Wall clock time:   8.9859962463378906E-003
(PID.TID 0000.0001)          No. starts:           4
(PID.TID 0000.0001)           No. stops:           4
(PID.TID 0000.0001) // ======================================================
(PID.TID 0000.0001) // Tile <-> Tile communication statistics
(PID.TID 0000.0001) // ======================================================
(PID.TID 0000.0001) // o Tile number: 000001
(PID.TID 0000.0001) //         No. X exchanges =              0
(PID.TID 0000.0001) //            Max. X spins =              0
(PID.TID 0000.0001) //            Min. X spins =     1000000000
(PID.TID 0000.0001) //          Total. X spins =              0
(PID.TID 0000.0001) //            Avg. X spins =       0.00E+00
(PID.TID 0000.0001) //         No. Y exchanges =              0
(PID.TID 0000.0001) //            Max. Y spins =              0
(PID.TID 0000.0001) //            Min. Y spins =     1000000000
(PID.TID 0000.0001) //          Total. Y spins =              0
(PID.TID 0000.0001) //            Avg. Y spins =       0.00E+00
(PID.TID 0000.0001) // o Thread number: 000001
(PID.TID 0000.0001) //            No. barriers =          31602
(PID.TID 0000.0001) //      Max. barrier spins =              1
(PID.TID 0000.0001) //      Min. barrier spins =              1
(PID.TID 0000.0001) //     Total barrier spins =          31602
(PID.TID 0000.0001) //      Avg. barrier spins =       1.00E+00
PROGRAM MAIN: Execution ended Normally
