(PID.TID 0000.0001) 
(PID.TID 0000.0001) // ======================================================
(PID.TID 0000.0001) //                      MITgcm UV
(PID.TID 0000.0001) //                      =========
(PID.TID 0000.0001) // ======================================================
(PID.TID 0000.0001) // execution environment starting up...
(PID.TID 0000.0001) 
(PID.TID 0000.0001) // Build user:        jahn
(PID.TID 0000.0001) // Build host:        saramago.mit.edu
(PID.TID 0000.0001) // Build date:        Sat Jan 26 10:35:10 EST 2013
(PID.TID 0000.0001) 
(PID.TID 0000.0001) // =======================================================
(PID.TID 0000.0001) // Execution Environment parameter file "eedata"
(PID.TID 0000.0001) // =======================================================
(PID.TID 0000.0001) ># Example "eedata" file
(PID.TID 0000.0001) ># Lines beginning "#" are comments
(PID.TID 0000.0001) ># nTx - No. threads per process in X
(PID.TID 0000.0001) ># nTy - No. threads per process in Y
(PID.TID 0000.0001) > &EEPARMS
(PID.TID 0000.0001) > nTx=1,nTy=1
(PID.TID 0000.0001) > /
(PID.TID 0000.0001) ># Note: Some systems use & as the
(PID.TID 0000.0001) ># namelist terminator. Other systems
(PID.TID 0000.0001) ># use a / character (as shown here).
(PID.TID 0000.0001) 
(PID.TID 0000.0001) // =======================================================
(PID.TID 0000.0001) // Computational Grid Specification ( see files "SIZE.h" )
(PID.TID 0000.0001) //                                  ( and "eedata"       )
(PID.TID 0000.0001) // =======================================================
(PID.TID 0000.0001)      nPx =    1 ; /* No. processes in X */
(PID.TID 0000.0001)      nPy =    1 ; /* No. processes in Y */
(PID.TID 0000.0001)      nSx =    1 ; /* No. tiles in X per process */
(PID.TID 0000.0001)      nSy =    1 ; /* No. tiles in Y per process */
(PID.TID 0000.0001)      sNx =    1 ; /* Tile size in X */
(PID.TID 0000.0001)      sNy =    1 ; /* Tile size in Y */
(PID.TID 0000.0001)      OLx =    2 ; /* Tile overlap distance in X */
(PID.TID 0000.0001)      OLy =    2 ; /* Tile overlap distance in Y */
(PID.TID 0000.0001)      nTx =    1 ; /* No. threads in X per process */
(PID.TID 0000.0001)      nTy =    1 ; /* No. threads in Y per process */
(PID.TID 0000.0001)       Nr =   35 ; /* No. levels in the vertical   */
(PID.TID 0000.0001)       Nx =    1 ; /* Total domain size in X ( = nPx*nSx*sNx ) */
(PID.TID 0000.0001)       Ny =    1 ; /* Total domain size in Y ( = nPy*nSy*sNy ) */
(PID.TID 0000.0001)   nTiles =    1 ; /* Total no. tiles per process ( = nSx*nSy ) */
(PID.TID 0000.0001)   nProcs =    1 ; /* Total no. processes ( = nPx*nPy ) */
(PID.TID 0000.0001) nThreads =    1 ; /* Total no. threads per process ( = nTx*nTy ) */
(PID.TID 0000.0001) usingMPI =    F ; /* Flag used to control whether MPI is in use */
(PID.TID 0000.0001)                   /*  note: To execute a program with MPI calls */
(PID.TID 0000.0001)                   /*  it must be launched appropriately e.g     */
(PID.TID 0000.0001)                   /*  "mpirun -np 64 ......"                    */
(PID.TID 0000.0001) useCoupler=    F ;/* Flag used to control communications with   */
(PID.TID 0000.0001)                   /*  other model components, through a coupler */
(PID.TID 0000.0001) debugMode =    F ; /* print debug msg. (sequence of S/R calls)  */
(PID.TID 0000.0001) printMapIncludesZeros=    F ; /* print zeros in Std.Output maps */
(PID.TID 0000.0001) maxLengthPrt1D=   65 /* maxLength of 1D array printed to StdOut */
(PID.TID 0000.0001) 
(PID.TID 0000.0001) // ======================================================
(PID.TID 0000.0001) // Mapping of tiles to threads
(PID.TID 0000.0001) // ======================================================
(PID.TID 0000.0001) // -o- Thread   1, tiles (   1:   1,   1:   1)
(PID.TID 0000.0001) 
(PID.TID 0000.0001) // ======================================================
(PID.TID 0000.0001) // Tile <-> Tile connectvity table
(PID.TID 0000.0001) // ======================================================
(PID.TID 0000.0001) // Tile number: 000001 (process no. = 000000)
(PID.TID 0000.0001) //        WEST: Tile = 000001, Process = 000000, Comm = put
(PID.TID 0000.0001) //                bi = 000001, bj = 000001
(PID.TID 0000.0001) //        EAST: Tile = 000001, Process = 000000, Comm = put
(PID.TID 0000.0001) //                bi = 000001, bj = 000001
(PID.TID 0000.0001) //       SOUTH: Tile = 000001, Process = 000000, Comm = put
(PID.TID 0000.0001) //                bi = 000001, bj = 000001
(PID.TID 0000.0001) //       NORTH: Tile = 000001, Process = 000000, Comm = put
(PID.TID 0000.0001) //                bi = 000001, bj = 000001
(PID.TID 0000.0001) 
(PID.TID 0000.0001)  INI_PARMS: opening model parameter file "data"
(PID.TID 0000.0001)  OPEN_COPY_DATA_FILE: opening file data
(PID.TID 0000.0001) // =======================================================
(PID.TID 0000.0001) // Parameter file "data"
(PID.TID 0000.0001) // =======================================================
(PID.TID 0000.0001) >#
(PID.TID 0000.0001) ># ******************************
(PID.TID 0000.0001) ># Model parameters
(PID.TID 0000.0001) ># Continuous equation parameters
(PID.TID 0000.0001) ># ******************************
(PID.TID 0000.0001) >&PARM01
(PID.TID 0000.0001) >tRef= 26.5, 26.1, 26., 25.5, 25.4, 24.9, 24.5, 24.0, 23.7,
(PID.TID 0000.0001) >      23.3, 23.1, 22.8, 22.5, 22.1, 21.6, 20.6, 19.5, 18.4,
(PID.TID 0000.0001) >      17.3, 16.6, 15.5, 14.6, 13.8, 13.1, 11.6, 10.1, 7.7,
(PID.TID 0000.0001) >      5.3, 4.1, 3.7, 3.7, 3.4, 3.0, 2.8, 2.6,
(PID.TID 0000.0001) >sRef= 35*35.00,
(PID.TID 0000.0001) >no_slip_sides=.false.,
(PID.TID 0000.0001) >no_slip_bottom=.TRUE.,
(PID.TID 0000.0001) >viscAz=0.e0,
(PID.TID 0000.0001) >viscAh=0.e0,
(PID.TID 0000.0001) >diffKhT=1.E2,
(PID.TID 0000.0001) >diffKzT=1.E-4,
(PID.TID 0000.0001) >diffKhS=0.D0,
(PID.TID 0000.0001) >diffKzS=0.D0,
(PID.TID 0000.0001) >beta=1.E-11,
(PID.TID 0000.0001) >tAlpha=2.E-4,
(PID.TID 0000.0001) >sBeta =7.4E-4,
(PID.TID 0000.0001) >gravity=9.81,
(PID.TID 0000.0001) >gBaro=9.81,
(PID.TID 0000.0001) >rigidLid=.TRUE.,
(PID.TID 0000.0001) >implicitFreeSurface=.false.,
(PID.TID 0000.0001) >eosType='JMD95Z',
(PID.TID 0000.0001) >saltStepping=.FALSE.,
(PID.TID 0000.0001) >tempStepping=.TRUE.,
(PID.TID 0000.0001) >tempAdvection=.TRUE.,
(PID.TID 0000.0001) >momStepping=.FALSE.,
(PID.TID 0000.0001) >implicitDiffusion=.true.,
(PID.TID 0000.0001) >implicitViscosity=.true.,
(PID.TID 0000.0001) >allowFreezing=.false.,
(PID.TID 0000.0001) >useSingleCpuIO=.TRUE.,
(PID.TID 0000.0001) >useCDscheme=.FALSE.,
(PID.TID 0000.0001) >tempAdvScheme = 3,
(PID.TID 0000.0001) >saltAdvScheme = 3,
(PID.TID 0000.0001) >writeBinaryPrec= 64,
(PID.TID 0000.0001) >/
(PID.TID 0000.0001) >
(PID.TID 0000.0001) ># **************************
(PID.TID 0000.0001) ># Elliptic solver parameters
(PID.TID 0000.0001) ># **************************
(PID.TID 0000.0001) >&PARM02
(PID.TID 0000.0001) >cg2dMaxIters=300,
(PID.TID 0000.0001) >cg2dTargetResidual=1.E-7,
(PID.TID 0000.0001) >/
(PID.TID 0000.0001) >
(PID.TID 0000.0001) ># ************************
(PID.TID 0000.0001) ># Time stepping parameters
(PID.TID 0000.0001) ># ************************
(PID.TID 0000.0001) >&PARM03
(PID.TID 0000.0001) > nIter0=0,
(PID.TID 0000.0001) >#nTimeSteps=86400,
(PID.TID 0000.0001) > nTimeSteps=4,
(PID.TID 0000.0001) > deltaTmom= 3600.,
(PID.TID 0000.0001) > deltaTtracer= 3600.,
(PID.TID 0000.0001) > deltaTClock = 3600.,
(PID.TID 0000.0001) > cAdjFreq    = 0.,
(PID.TID 0000.0001) > abEps=0.1,
(PID.TID 0000.0001) > pChkptFreq  = 31104000.0,
(PID.TID 0000.0001) > chkptFreq   = 31104000.0,
(PID.TID 0000.0001) > dumpFreq = 3600.,
(PID.TID 0000.0001) > dumpInitAndLast = .TRUE.,
(PID.TID 0000.0001) > taveFreq    = 2592000.,
(PID.TID 0000.0001) >#monitorFreq = 2592000.,
(PID.TID 0000.0001) > monitorFreq = 1.,
(PID.TID 0000.0001) > tauThetaClimRelax=86400.,
(PID.TID 0000.0001) > tauSaltClimRelax=0.,
(PID.TID 0000.0001) > periodicExternalForcing=.TRUE.,
(PID.TID 0000.0001) > externForcingPeriod=2592000.,
(PID.TID 0000.0001) > externForcingCycle=31104000.,
(PID.TID 0000.0001) >/
(PID.TID 0000.0001) >
(PID.TID 0000.0001) ># *******************
(PID.TID 0000.0001) ># Gridding parameters
(PID.TID 0000.0001) ># *******************
(PID.TID 0000.0001) >&PARM04
(PID.TID 0000.0001) >usingCartesianGrid=.FALSE.,
(PID.TID 0000.0001) >usingSphericalPolarGrid=.TRUE.,
(PID.TID 0000.0001) >delX=1*1.E0,
(PID.TID 0000.0001) >delY=1*1.E0,
(PID.TID 0000.0001) >delZ=14*10, 5*15, 4*20, 2*50, 100, 2*150, 200, 300, 3*400, 2*500,
(PID.TID 0000.0001) >xgOrigin=0,
(PID.TID 0000.0001) >ygOrigin=-45.,
(PID.TID 0000.0001) >/
(PID.TID 0000.0001) >
(PID.TID 0000.0001) ># **********
(PID.TID 0000.0001) ># Data Files
(PID.TID 0000.0001) ># **********
(PID.TID 0000.0001) >&PARM05
(PID.TID 0000.0001) >bathyFile=       '../input/input/bathyneg.bin',
(PID.TID 0000.0001) >hydrogThetaFile= '../input/input/loc1_temp_janprof.bin',
(PID.TID 0000.0001) >hydrogSaltFile=  '../input/input/salt_uniform.bin',
(PID.TID 0000.0001) >zonalWindFile=   '../input/input/loc1_taux_monsurf.bin',
(PID.TID 0000.0001) >meridWindFile=   '../input/input/loc1_tauy_monsurf.bin',
(PID.TID 0000.0001) >thetaClimFile=   '../input/input/loc1_temp_monsurf.bin',
(PID.TID 0000.0001) >saltClimFile=    '',
(PID.TID 0000.0001) >surfQFile=       '',
(PID.TID 0000.0001) >EmPmRFile=       '',
(PID.TID 0000.0001) >/
(PID.TID 0000.0001) 
(PID.TID 0000.0001)  INI_PARMS ; starts to read PARM01
(PID.TID 0000.0001)  INI_PARMS ; read PARM01 : OK
(PID.TID 0000.0001)  INI_PARMS ; starts to read PARM02
(PID.TID 0000.0001)  INI_PARMS ; read PARM02 : OK
(PID.TID 0000.0001)  INI_PARMS ; starts to read PARM03
(PID.TID 0000.0001)  INI_PARMS ; read PARM03 : OK
(PID.TID 0000.0001)  INI_PARMS ; starts to read PARM04
(PID.TID 0000.0001)  INI_PARMS ; read PARM04 : OK
(PID.TID 0000.0001)  INI_PARMS ; starts to read PARM05
(PID.TID 0000.0001)  INI_PARMS ; read PARM05 : OK
(PID.TID 0000.0001)  INI_PARMS: finished reading file "data"
(PID.TID 0000.0001)  PACKAGES_BOOT: opening data.pkg
(PID.TID 0000.0001)  OPEN_COPY_DATA_FILE: opening file data.pkg
(PID.TID 0000.0001) // =======================================================
(PID.TID 0000.0001) // Parameter file "data.pkg"
(PID.TID 0000.0001) // =======================================================
(PID.TID 0000.0001) ># Packages
(PID.TID 0000.0001) > &PACKAGES
(PID.TID 0000.0001) > usePTRACERS=.TRUE.
(PID.TID 0000.0001) > useGCHEM=.TRUE.,
(PID.TID 0000.0001) > useKPP=.TRUE.,
(PID.TID 0000.0001) > useMNC=.TRUE.,
(PID.TID 0000.0001) > useEXF=.TRUE,
(PID.TID 0000.0001) > useDIAGNOSTICS=.TRUE,
(PID.TID 0000.0001) > /
(PID.TID 0000.0001) 
(PID.TID 0000.0001)  PACKAGES_BOOT: finished reading data.pkg
(PID.TID 0000.0001)  MNC_READPARMS: opening file 'data.mnc'
(PID.TID 0000.0001)  OPEN_COPY_DATA_FILE: opening file data.mnc
(PID.TID 0000.0001) // =======================================================
(PID.TID 0000.0001) // Parameter file "data.mnc"
(PID.TID 0000.0001) // =======================================================
(PID.TID 0000.0001) ># Example "data.mnc" file
(PID.TID 0000.0001) ># Lines beginning "#" are comments
(PID.TID 0000.0001) > &MNC_01
(PID.TID 0000.0001) ># mnc_echo_gvtypes=.FALSE.,
(PID.TID 0000.0001) ># mnc_use_indir=.FALSE.,
(PID.TID 0000.0001) > mnc_use_outdir=F,
(PID.TID 0000.0001) > mnc_outdir_str='mnc_',
(PID.TID 0000.0001) > mnc_outdir_date=T,
(PID.TID 0000.0001) > monitor_mnc=.FALSE.,
(PID.TID 0000.0001) > snapshot_mnc=.TRUE.,
(PID.TID 0000.0001) > timeave_mnc=.TRUE.,
(PID.TID 0000.0001) > pickup_read_mnc=.FALSE.,
(PID.TID 0000.0001) > pickup_write_mnc=.FALSE.,
(PID.TID 0000.0001) > /
(PID.TID 0000.0001) ># Note: Some systems use & as the
(PID.TID 0000.0001) ># namelist terminator. Other systems
(PID.TID 0000.0001) ># use a / character.
(PID.TID 0000.0001) 
(PID.TID 0000.0001)  MNC_READPARMS: finished reading data.mnc
(PID.TID 0000.0001) CAL_READPARMS: opening data.cal
(PID.TID 0000.0001)  OPEN_COPY_DATA_FILE: opening file data.cal
(PID.TID 0000.0001) // =======================================================
(PID.TID 0000.0001) // Parameter file "data.cal"
(PID.TID 0000.0001) // =======================================================
(PID.TID 0000.0001) >#
(PID.TID 0000.0001) ># *******************
(PID.TID 0000.0001) ># Calendar Parameters
(PID.TID 0000.0001) ># *******************
(PID.TID 0000.0001) > &CAL_NML
(PID.TID 0000.0001) > TheCalendar='model',
(PID.TID 0000.0001) > startDate_1=19920101,
(PID.TID 0000.0001) > startDate_2=000000,
(PID.TID 0000.0001) > calendarDumps = .TRUE.
(PID.TID 0000.0001) > /
(PID.TID 0000.0001) 
(PID.TID 0000.0001) CAL_READPARMS: finished reading data.cal
(PID.TID 0000.0001) EXF_READPARMS: opening data.exf
(PID.TID 0000.0001)  OPEN_COPY_DATA_FILE: opening file data.exf
(PID.TID 0000.0001) // =======================================================
(PID.TID 0000.0001) // Parameter file "data.exf"
(PID.TID 0000.0001) // =======================================================
(PID.TID 0000.0001) ># *********************
(PID.TID 0000.0001) ># External Forcing Data
(PID.TID 0000.0001) ># *********************
(PID.TID 0000.0001) >#
(PID.TID 0000.0001) > &EXF_NML_01
(PID.TID 0000.0001) > exf_albedo        = 0.15,
(PID.TID 0000.0001) > exf_iprec         = 32,
(PID.TID 0000.0001) > exf_yftype        = 'RL',
(PID.TID 0000.0001) > useExfYearlyFields= .TRUE.,
(PID.TID 0000.0001) > twoDigitYear      = .TRUE.,
(PID.TID 0000.0001) > useExfCheckRange  = .FALSE.,
(PID.TID 0000.0001) > /
(PID.TID 0000.0001) >#
(PID.TID 0000.0001) > &EXF_NML_02
(PID.TID 0000.0001) > /
(PID.TID 0000.0001) >#
(PID.TID 0000.0001) > &EXF_NML_03
(PID.TID 0000.0001) > /
(PID.TID 0000.0001) >#
(PID.TID 0000.0001) > &EXF_NML_04
(PID.TID 0000.0001) > /
(PID.TID 0000.0001) >#
(PID.TID 0000.0001) > &EXF_NML_OBCS
(PID.TID 0000.0001) > /
(PID.TID 0000.0001) 
(PID.TID 0000.0001) EXF_READPARMS: reading EXF_NML_01
(PID.TID 0000.0001) EXF_READPARMS: reading EXF_NML_02
(PID.TID 0000.0001) EXF_READPARMS: reading EXF_NML_03
(PID.TID 0000.0001) EXF_READPARMS: finished reading data.exf
(PID.TID 0000.0001)  KPP_INIT: opening data.kpp
(PID.TID 0000.0001)  OPEN_COPY_DATA_FILE: opening file data.kpp
(PID.TID 0000.0001) // =======================================================
(PID.TID 0000.0001) // Parameter file "data.kpp"
(PID.TID 0000.0001) // =======================================================
(PID.TID 0000.0001) >#
(PID.TID 0000.0001) ># ***************
(PID.TID 0000.0001) ># Open boundaries
(PID.TID 0000.0001) ># ***************
(PID.TID 0000.0001) > &KPP_PARM01
(PID.TID 0000.0001) > KPPmixingMaps   = .FALSE.,
(PID.TID 0000.0001) > KPPwriteState   = .TRUE.,
(PID.TID 0000.0001) > kpp_dumpFreq    = 2592000.
(PID.TID 0000.0001) > kpp_tavefreq    = 2592000.
(PID.TID 0000.0001) > Ricr            = 0.3559
(PID.TID 0000.0001) > Riinfty         = 0.6998
(PID.TID 0000.0001) > /
(PID.TID 0000.0001) >
(PID.TID 0000.0001) 
(PID.TID 0000.0001)  KPP_INIT: finished reading data.kpp
(PID.TID 0000.0001)  PTRACERS_READPARMS: opening data.ptracers
(PID.TID 0000.0001)  OPEN_COPY_DATA_FILE: opening file data.ptracers
(PID.TID 0000.0001) // =======================================================
(PID.TID 0000.0001) // Parameter file "data.ptracers"
(PID.TID 0000.0001) // =======================================================
(PID.TID 0000.0001) > &PTRACERS_PARM01
(PID.TID 0000.0001) > PTRACERS_numInUse=21,
(PID.TID 0000.0001) > PTRACERS_Iter0= 0,
(PID.TID 0000.0001) > PTRACERS_advScheme= 21*33,
(PID.TID 0000.0001) > PTRACERS_diffKh=    21*0.E3,
(PID.TID 0000.0001) > PTRACERS_diffKr=    21*1.E-5,
(PID.TID 0000.0001) > PTRACERS_useGMRedi= 21*.FALSE. ,
(PID.TID 0000.0001) > PTRACERS_useKPP=    21*.TRUE.,
(PID.TID 0000.0001) >#
(PID.TID 0000.0001) > PTRACERS_names(1)= 'DIC',
(PID.TID 0000.0001) > PTRACERS_names(2)= 'NH4',
(PID.TID 0000.0001) > PTRACERS_names(3)= 'NO2',
(PID.TID 0000.0001) > PTRACERS_names(4)= 'NO3',
(PID.TID 0000.0001) > PTRACERS_names(5)= 'PO4',
(PID.TID 0000.0001) > PTRACERS_names(6)= 'SiO2',
(PID.TID 0000.0001) > PTRACERS_names(7)= 'FeT',
(PID.TID 0000.0001) > PTRACERS_names(8)= 'DOC',
(PID.TID 0000.0001) > PTRACERS_names(9)= 'DON',
(PID.TID 0000.0001) > PTRACERS_names(10)= 'DOP',
(PID.TID 0000.0001) > PTRACERS_names(11)= 'DOFe',
(PID.TID 0000.0001) > PTRACERS_names(12)= 'POC',
(PID.TID 0000.0001) > PTRACERS_names(13)= 'PON',
(PID.TID 0000.0001) > PTRACERS_names(14)= 'POP',
(PID.TID 0000.0001) > PTRACERS_names(15)= 'POSi',
(PID.TID 0000.0001) > PTRACERS_names(16)= 'POFe',
(PID.TID 0000.0001) > PTRACERS_names(17)= 'PIC',
(PID.TID 0000.0001) > PTRACERS_names(18)= 'c1',
(PID.TID 0000.0001) > PTRACERS_names(19)= 'c2',
(PID.TID 0000.0001) > PTRACERS_names(20)= 'zc1',
(PID.TID 0000.0001) > PTRACERS_names(21)= 'zc2',
(PID.TID 0000.0001) >#
(PID.TID 0000.0001) > PTRACERS_units(1)='mmol C/m^3'
(PID.TID 0000.0001) > PTRACERS_units(2)='mmol N/m^3'
(PID.TID 0000.0001) > PTRACERS_units(3)='mmol N/m^3'
(PID.TID 0000.0001) > PTRACERS_units(4)='mmol N/m^3'
(PID.TID 0000.0001) > PTRACERS_units(5)='mmol P/m^3'
(PID.TID 0000.0001) > PTRACERS_units(6)='mmol Si/m^3'
(PID.TID 0000.0001) > PTRACERS_units(7)='mmol Fe/m^3'
(PID.TID 0000.0001) > PTRACERS_units(8)='mmol C/m^3'
(PID.TID 0000.0001) > PTRACERS_units(9)='mmol N/m^3'
(PID.TID 0000.0001) > PTRACERS_units(10)='mmol P/m^3'
(PID.TID 0000.0001) > PTRACERS_units(11)='mmol Fe/m^3'
(PID.TID 0000.0001) > PTRACERS_units(12)='mmol C/m^3'
(PID.TID 0000.0001) > PTRACERS_units(13)='mmol N/m^3'
(PID.TID 0000.0001) > PTRACERS_units(14)='mmol P/m^3'
(PID.TID 0000.0001) > PTRACERS_units(15)='mmol Si/m^3'
(PID.TID 0000.0001) > PTRACERS_units(16)='mmol Fe/m^3'
(PID.TID 0000.0001) > PTRACERS_units(17)='mmol C/m^3'
(PID.TID 0000.0001) > PTRACERS_units(18)='mmol C/m^3'
(PID.TID 0000.0001) > PTRACERS_units(19)='mmol C/m^3'
(PID.TID 0000.0001) > PTRACERS_units(20)='mmol C/m^3'
(PID.TID 0000.0001) > PTRACERS_units(21)='mmol C/m^3'
(PID.TID 0000.0001) >#
(PID.TID 0000.0001) > PTRACERS_ref(1:35,   1)= 35*2e3,
(PID.TID 0000.0001) > PTRACERS_initialFile(2)='../input/input/loc1_NH4_run83_janprof.bin',
(PID.TID 0000.0001) > PTRACERS_initialFile(3)='../input/input/loc1_NO2_run83_janprof.bin',
(PID.TID 0000.0001) > PTRACERS_initialFile(4)='../input/input/loc1_nitr_janprof.bin',
(PID.TID 0000.0001) > PTRACERS_initialFile(5)='../input/input/loc1_phos_janprof.bin',
(PID.TID 0000.0001) > PTRACERS_initialFile(6)='../input/input/loc1_sil_janprof.bin',
(PID.TID 0000.0001) > PTRACERS_initialFile(7)='../input/input/fet_uniform.bin',
(PID.TID 0000.0001) > PTRACERS_ref(1:35,   8)= 35*0e0,
(PID.TID 0000.0001) > PTRACERS_initialFile(9)='../input/input/loc1_DON_run83_janprof.bin',
(PID.TID 0000.0001) > PTRACERS_initialFile(10)='../input/input/loc1_DOP_run83_janprof.bin',
(PID.TID 0000.0001) > PTRACERS_initialFile(11)='../input/input/loc1_DOFe_run83_janprof.bin',
(PID.TID 0000.0001) > PTRACERS_ref(1:35,   12)= 35*0e0,
(PID.TID 0000.0001) > PTRACERS_initialFile(13)='../input/input/loc1_PON_run83_janprof.bin',
(PID.TID 0000.0001) > PTRACERS_initialFile(14)='../input/input/loc1_POP_run83_janprof.bin',
(PID.TID 0000.0001) > PTRACERS_initialFile(15)='../input/input/loc1_POSi_run83_janprof.bin',
(PID.TID 0000.0001) > PTRACERS_initialFile(16)='../input/input/loc1_POFe_run83_janprof.bin',
(PID.TID 0000.0001) > PTRACERS_ref(1:35,   17)= 35*0e0,
(PID.TID 0000.0001) > PTRACERS_initialFile(18)='../input/input/loc1_biomass_run83_janprof.bin',
(PID.TID 0000.0001) > PTRACERS_initialFile(19)='../input/input/loc1_biomass_run83_janprof.bin',
(PID.TID 0000.0001) > PTRACERS_initialFile(20)='../input/input/loc1_ZOOP_run83_janprof.bin',
(PID.TID 0000.0001) > PTRACERS_initialFile(21)='../input/input/loc1_ZOOP_run83_janprof.bin',
(PID.TID 0000.0001) > /
(PID.TID 0000.0001) 
(PID.TID 0000.0001)  PTRACERS_READPARMS: finished reading data.ptracers
(PID.TID 0000.0001)  GCHEM_READPARMS: opening data.gchem
(PID.TID 0000.0001)  OPEN_COPY_DATA_FILE: opening file data.gchem
(PID.TID 0000.0001) // =======================================================
(PID.TID 0000.0001) // Parameter file "data.gchem"
(PID.TID 0000.0001) // =======================================================
(PID.TID 0000.0001) > &GCHEM_PARM01
(PID.TID 0000.0001) >  useDARWIN=.TRUE.,
(PID.TID 0000.0001) >  nsubtime=1,
(PID.TID 0000.0001) > /
(PID.TID 0000.0001) 
(PID.TID 0000.0001)  GCHEM_READPARMS: finished reading data.gchem
(PID.TID 0000.0001)  DARWIN_READPARMS: opening data.darwin
(PID.TID 0000.0001)  OPEN_COPY_DATA_FILE: opening file data.darwin
(PID.TID 0000.0001) // =======================================================
(PID.TID 0000.0001) // Parameter file "data.darwin"
(PID.TID 0000.0001) // =======================================================
(PID.TID 0000.0001) > &DARWIN_FORCING_PARAMS
(PID.TID 0000.0001) > ironFile='../input/input/loc1_FeFlux_monsurf.bin',
(PID.TID 0000.0001) > PARFile='../input/input/loc1_PAR_monsurf.bin',
(PID.TID 0000.0001) > ironPeriod= -12.,
(PID.TID 0000.0001) > PARPeriod= -12.,
(PID.TID 0000.0001) > darwin_inscal_iron= 1000.,
(PID.TID 0000.0001) > darwin_inscal_PAR= 11.574074074074,
(PID.TID 0000.0001) > /
(PID.TID 0000.0001) > &DARWIN_PARAMS
(PID.TID 0000.0001) > darwin_seed= 11231,
(PID.TID 0000.0001) > darwin_read_phos=.TRUE.,
(PID.TID 0000.0001) > PARmin= 1.0,
(PID.TID 0000.0001) > /
(PID.TID 0000.0001) > &DARWIN_TRAIT_PARAMS
(PID.TID 0000.0001) > /
(PID.TID 0000.0001) > &DARWIN_ALLOMETRIC_PARAMS
(PID.TID 0000.0001) > /
(PID.TID 0000.0001) > &DARWIN_TRAITS
(PID.TID 0000.0001) > /
(PID.TID 0000.0001) 
(PID.TID 0000.0001) QQ random port_rand            11231   0.4077530000000000
(PID.TID 0000.0001)  ===================================
(PID.TID 0000.0001)  DIAGNOSTICS_READPARMS: opening data.diagnostics
(PID.TID 0000.0001)  OPEN_COPY_DATA_FILE: opening file data.diagnostics
(PID.TID 0000.0001) // =======================================================
(PID.TID 0000.0001) // Parameter file "data.diagnostics"
(PID.TID 0000.0001) // =======================================================
(PID.TID 0000.0001) ># Darwin diagnostics
(PID.TID 0000.0001) ># ==================
(PID.TID 0000.0001) > &diagnostics_list
(PID.TID 0000.0001) >#
(PID.TID 0000.0001) >  frequency(1) = 3600.,
(PID.TID 0000.0001) >  fields( 1,1) = 'TRAC01  ',
(PID.TID 0000.0001) >  fields( 2,1) = 'TRAC02  ',
(PID.TID 0000.0001) >  fields( 3,1) = 'TRAC03  ',
(PID.TID 0000.0001) >  fields( 4,1) = 'TRAC04  ',
(PID.TID 0000.0001) >  fields( 5,1) = 'TRAC05  ',
(PID.TID 0000.0001) >  fields( 6,1) = 'TRAC06  ',
(PID.TID 0000.0001) >  fields( 7,1) = 'TRAC07  ',
(PID.TID 0000.0001) >  fields( 8,1) = 'TRAC08  ',
(PID.TID 0000.0001) >  fields( 9,1) = 'TRAC09  ',
(PID.TID 0000.0001) >  fields(10,1) = 'TRAC10  ',
(PID.TID 0000.0001) >  fields(11,1) = 'TRAC11  ',
(PID.TID 0000.0001) >  fields(12,1) = 'TRAC12  ',
(PID.TID 0000.0001) >  fields(13,1) = 'TRAC13  ',
(PID.TID 0000.0001) >  fields(14,1) = 'TRAC14  ',
(PID.TID 0000.0001) >  fields(15,1) = 'TRAC15  ',
(PID.TID 0000.0001) >  fields(16,1) = 'TRAC16  ',
(PID.TID 0000.0001) >  fields(17,1) = 'TRAC17  ',
(PID.TID 0000.0001) >  fields(18,1) = 'TRAC18  ',
(PID.TID 0000.0001) >  fields(19,1) = 'TRAC19  ',
(PID.TID 0000.0001) >  fields(20,1) = 'TRAC20  ',
(PID.TID 0000.0001) >  fields(21,1) = 'TRAC21  ',
(PID.TID 0000.0001) >  fields(22,1) = 'PAR01   ',
(PID.TID 0000.0001) >  fields(23,1) = 'DIC_c01 ',
(PID.TID 0000.0001) >  fields(24,1) = 'DIC_c02 ',
(PID.TID 0000.0001) >  fields(25,1) = 'c01_DOC ',
(PID.TID 0000.0001) >  fields(26,1) = 'c02_DOC ',
(PID.TID 0000.0001) >  fields(27,1) = 'c01_POC ',
(PID.TID 0000.0001) >  fields(28,1) = 'c02_POC ',
(PID.TID 0000.0001) >  fields(29,1) = 'PARF    ',
(PID.TID 0000.0001) >  fields(30,1) = 'atten   ',
(PID.TID 0000.0001) >  fields(31,1) = 'surfPAR ',
(PID.TID 0000.0001) >  fields(32,1) = 'exfPAR  ',
(PID.TID 0000.0001) >  fields(33,1) = 'limn01  ',
(PID.TID 0000.0001) >  fields(34,1) = 'limp01  ',
(PID.TID 0000.0001) >  fields(35,1) = 'limsi01 ',
(PID.TID 0000.0001) >  fields(36,1) = 'limfe01 ',
(PID.TID 0000.0001) >  fields(37,1) = 'limI01  ',
(PID.TID 0000.0001) >  fields(38,1) = 'limT01  ',
(PID.TID 0000.0001) >  fields(39,1) = 'c01_c   ',
(PID.TID 0000.0001) >  fields(40,1) = 'c02_c   ',
(PID.TID 0000.0001) >  fields(41,1) = 'c_c03   ',
(PID.TID 0000.0001) >  fields(42,1) = 'c_c04   ',
(PID.TID 0000.0001) >  fields(43,1) = 'c_DOC   ',
(PID.TID 0000.0001) >  fields(44,1) = 'c_POC   ',
(PID.TID 0000.0001) >  fields(45,1) = 'c_PIC   ',
(PID.TID 0000.0001) >  fields(46,1) = 'n_DON   ',
(PID.TID 0000.0001) >  fields(47,1) = 'n_PON   ',
(PID.TID 0000.0001) >  fields(48,1) = 'p_DOP   ',
(PID.TID 0000.0001) >  fields(49,1) = 'p_POP   ',
(PID.TID 0000.0001) >   filename(1) = 'darwin',
(PID.TID 0000.0001) >#
(PID.TID 0000.0001) > /
(PID.TID 0000.0001) >
(PID.TID 0000.0001) ># Parameter for Diagnostics of per level statistics:
(PID.TID 0000.0001) >#-----------------
(PID.TID 0000.0001) ># for each output-stream:
(PID.TID 0000.0001) >#  stat_fname(n) : prefix of the output file name (only 8.c long) for
(PID.TID 0000.0001) >#outp.stream n
(PID.TID 0000.0001) >#  stat_freq(n):< 0 : write snap-shot output every |stat_freq| seconds
(PID.TID 0000.0001) >#               > 0 : write time-average output every stat_freq seconds
(PID.TID 0000.0001) >#  stat_phase(n)    : write at time = stat_phase + multiple of |stat_freq|
(PID.TID 0000.0001) >#  stat_region(:,n) : list of "regions" (default: 1 region only=global)
(PID.TID 0000.0001) >#  stat_fields(:,n) : list of diagnostics fields (8.c) (see
(PID.TID 0000.0001) >#"available_diagnostics.log"
(PID.TID 0000.0001) >#                 file for the list of all available diag. in this particular
(PID.TID 0000.0001) >#config)
(PID.TID 0000.0001) >#-----------------
(PID.TID 0000.0001) > &DIAG_STATIS_PARMS
(PID.TID 0000.0001) > diagst_mnc=.FALSE.,
(PID.TID 0000.0001) >#     stat_freq(1:21)= 21*3600.,
(PID.TID 0000.0001) >#    stat_phase(1:21)= 21*0.,
(PID.TID 0000.0001) ># stat_fields(1,1)= 'TRAC01  '
(PID.TID 0000.0001) ># stat_fields(1,2)= 'TRAC02  '
(PID.TID 0000.0001) ># stat_fields(1,3)= 'TRAC03  '
(PID.TID 0000.0001) ># stat_fields(1,4)= 'TRAC04  '
(PID.TID 0000.0001) ># stat_fields(1,5)= 'TRAC05  '
(PID.TID 0000.0001) ># stat_fields(1,6)= 'TRAC06  '
(PID.TID 0000.0001) ># stat_fields(1,7)= 'TRAC07  '
(PID.TID 0000.0001) ># stat_fields(1,8)= 'TRAC08  '
(PID.TID 0000.0001) ># stat_fields(1,9)= 'TRAC09  '
(PID.TID 0000.0001) ># stat_fields(1,10)= 'TRAC10  '
(PID.TID 0000.0001) ># stat_fields(1,11)= 'TRAC11  '
(PID.TID 0000.0001) ># stat_fields(1,12)= 'TRAC12  '
(PID.TID 0000.0001) ># stat_fields(1,13)= 'TRAC13  '
(PID.TID 0000.0001) ># stat_fields(1,14)= 'TRAC14  '
(PID.TID 0000.0001) ># stat_fields(1,15)= 'TRAC15  '
(PID.TID 0000.0001) ># stat_fields(1,16)= 'TRAC16  '
(PID.TID 0000.0001) ># stat_fields(1,17)= 'TRAC17  '
(PID.TID 0000.0001) ># stat_fields(1,18)= 'TRAC18  '
(PID.TID 0000.0001) ># stat_fields(1,19)= 'TRAC19  '
(PID.TID 0000.0001) ># stat_fields(1,20)= 'TRAC20  '
(PID.TID 0000.0001) ># stat_fields(1,21)= 'TRAC21  '
(PID.TID 0000.0001) >#    stat_fname(1)= 'stats/DIC',
(PID.TID 0000.0001) >#    stat_fname(2)= 'stats/NH4',
(PID.TID 0000.0001) >#    stat_fname(3)= 'stats/NO2',
(PID.TID 0000.0001) >#    stat_fname(4)= 'stats/NO3',
(PID.TID 0000.0001) >#    stat_fname(5)= 'stats/PO4',
(PID.TID 0000.0001) >#    stat_fname(6)= 'stats/SiO2',
(PID.TID 0000.0001) >#    stat_fname(7)= 'stats/FeT',
(PID.TID 0000.0001) >#    stat_fname(8)= 'stats/DOC',
(PID.TID 0000.0001) >#    stat_fname(9)= 'stats/DON',
(PID.TID 0000.0001) >#    stat_fname(10)= 'stats/DOP',
(PID.TID 0000.0001) >#    stat_fname(11)= 'stats/DOFe',
(PID.TID 0000.0001) >#    stat_fname(12)= 'stats/POC',
(PID.TID 0000.0001) >#    stat_fname(13)= 'stats/PON',
(PID.TID 0000.0001) >#    stat_fname(14)= 'stats/POP',
(PID.TID 0000.0001) >#    stat_fname(15)= 'stats/POSi',
(PID.TID 0000.0001) >#    stat_fname(16)= 'stats/POFe',
(PID.TID 0000.0001) >#    stat_fname(17)= 'stats/PIC',
(PID.TID 0000.0001) >#    stat_fname(18)= 'stats/c1',
(PID.TID 0000.0001) >#    stat_fname(19)= 'stats/c2',
(PID.TID 0000.0001) >#    stat_fname(20)= 'stats/c3',
(PID.TID 0000.0001) >#    stat_fname(21)= 'stats/c4',
(PID.TID 0000.0001) > /
(PID.TID 0000.0001) 
(PID.TID 0000.0001) S/R DIAGNOSTICS_READPARMS, read namelist "diagnostics_list": start
(PID.TID 0000.0001) S/R DIAGNOSTICS_READPARMS, read namelist "diagnostics_list": OK
(PID.TID 0000.0001) S/R DIAGNOSTICS_READPARMS, read namelist "DIAG_STATIS_PARMS": start
(PID.TID 0000.0001) S/R DIAGNOSTICS_READPARMS, read namelist "DIAG_STATIS_PARMS": OK
(PID.TID 0000.0001)  DIAGNOSTICS_READPARMS: global parameter summary:
(PID.TID 0000.0001)  dumpAtLast = /* always write time-ave diags at the end */
(PID.TID 0000.0001)                   F
(PID.TID 0000.0001)     ;
(PID.TID 0000.0001)  diag_mnc =   /* write NetCDF output files */
(PID.TID 0000.0001)                   T
(PID.TID 0000.0001)     ;
(PID.TID 0000.0001)  useMissingValue = /* put MissingValue where mask = 0 */
(PID.TID 0000.0001)                   F
(PID.TID 0000.0001)     ;
(PID.TID 0000.0001)  diagCG_maxIters = /* max number of iters in diag_cg2d */
(PID.TID 0000.0001)                     300
(PID.TID 0000.0001)     ;
(PID.TID 0000.0001)  diagCG_resTarget = /* residual target for diag_cg2d */
(PID.TID 0000.0001)                 1.000000000000000E-07
(PID.TID 0000.0001)     ;
(PID.TID 0000.0001) -----------------------------------------------------
(PID.TID 0000.0001)  DIAGNOSTICS_READPARMS: active diagnostics summary:
(PID.TID 0000.0001) -----------------------------------------------------
(PID.TID 0000.0001) Creating Output Stream: darwin
(PID.TID 0000.0001) Output Frequency:       3600.000000 ; Phase:           0.000000
(PID.TID 0000.0001)  Averaging Freq.:       3600.000000 , Phase:           0.000000 , Cycle:   1
(PID.TID 0000.0001)  missing value:  1.234567000000E+05 ; for integers:   123456789
(PID.TID 0000.0001)  Levels:    will be set later
(PID.TID 0000.0001)  Fields:    TRAC01   TRAC02   TRAC03   TRAC04   TRAC05   TRAC06   TRAC07   TRAC08   TRAC09   TRAC10
(PID.TID 0000.0001)  Fields:    TRAC11   TRAC12   TRAC13   TRAC14   TRAC15   TRAC16   TRAC17   TRAC18   TRAC19   TRAC20
(PID.TID 0000.0001)  Fields:    TRAC21   PAR01    DIC_c01  DIC_c02  c01_DOC  c02_DOC  c01_POC  c02_POC  PARF     atten
(PID.TID 0000.0001)  Fields:    surfPAR  exfPAR   limn01   limp01   limsi01  limfe01  limI01   limT01   c01_c    c02_c
(PID.TID 0000.0001)  Fields:    c_c03    c_c04    c_DOC    c_POC    c_PIC    n_DON    n_PON    p_DOP    p_POP
(PID.TID 0000.0001) -----------------------------------------------------
(PID.TID 0000.0001)  DIAGNOSTICS_READPARMS: statistics diags. summary:
(PID.TID 0000.0001) -----------------------------------------------------
(PID.TID 0000.0001) 
(PID.TID 0000.0001) SET_PARMS: done
(PID.TID 0000.0001) Enter INI_VERTICAL_GRID: setInterFDr=    T ; setCenterDr=    F
(PID.TID 0000.0001) %MON XC_max                       =   5.0000000000000000E-01
(PID.TID 0000.0001) %MON XC_min                       =   5.0000000000000000E-01
(PID.TID 0000.0001) %MON XC_mean                      =   5.0000000000000000E-01
(PID.TID 0000.0001) %MON XC_sd                        =   0.0000000000000000E+00
(PID.TID 0000.0001) %MON XG_max                       =   0.0000000000000000E+00
(PID.TID 0000.0001) %MON XG_min                       =   0.0000000000000000E+00
(PID.TID 0000.0001) %MON XG_mean                      =   0.0000000000000000E+00
(PID.TID 0000.0001) %MON XG_sd                        =   0.0000000000000000E+00
(PID.TID 0000.0001) %MON DXC_max                      =   7.9297382804168723E+04
(PID.TID 0000.0001) %MON DXC_min                      =   7.9297382804168723E+04
(PID.TID 0000.0001) %MON DXC_mean                     =   7.9297382804168723E+04
(PID.TID 0000.0001) %MON DXC_sd                       =   0.0000000000000000E+00
(PID.TID 0000.0001) %MON DXF_max                      =   7.9297382804168723E+04
(PID.TID 0000.0001) %MON DXF_min                      =   7.9297382804168723E+04
(PID.TID 0000.0001) %MON DXF_mean                     =   7.9297382804168723E+04
(PID.TID 0000.0001) %MON DXF_sd                       =   0.0000000000000000E+00
(PID.TID 0000.0001) %MON DXG_max                      =   7.8614345322413312E+04
(PID.TID 0000.0001) %MON DXG_min                      =   7.8614345322413312E+04
(PID.TID 0000.0001) %MON DXG_mean                     =   7.8614345322413312E+04
(PID.TID 0000.0001) %MON DXG_sd                       =   0.0000000000000000E+00
(PID.TID 0000.0001) %MON DXV_max                      =   7.8614345322413312E+04
(PID.TID 0000.0001) %MON DXV_min                      =   7.8614345322413312E+04
(PID.TID 0000.0001) %MON DXV_mean                     =   7.8614345322413312E+04
(PID.TID 0000.0001) %MON DXV_sd                       =   0.0000000000000000E+00
(PID.TID 0000.0001) %MON YC_max                       =  -4.4500000000000000E+01
(PID.TID 0000.0001) %MON YC_min                       =  -4.4500000000000000E+01
(PID.TID 0000.0001) %MON YC_mean                      =  -4.4500000000000000E+01
(PID.TID 0000.0001) %MON YC_sd                        =   0.0000000000000000E+00
(PID.TID 0000.0001) %MON YG_max                       =  -4.5000000000000000E+01
(PID.TID 0000.0001) %MON YG_min                       =  -4.5000000000000000E+01
(PID.TID 0000.0001) %MON YG_mean                      =  -4.5000000000000000E+01
(PID.TID 0000.0001) %MON YG_sd                        =   0.0000000000000000E+00
(PID.TID 0000.0001) %MON DYC_max                      =   1.1117747335203880E+05
(PID.TID 0000.0001) %MON DYC_min                      =   1.1117747335203880E+05
(PID.TID 0000.0001) %MON DYC_mean                     =   1.1117747335203880E+05
(PID.TID 0000.0001) %MON DYC_sd                       =   0.0000000000000000E+00
(PID.TID 0000.0001) %MON DYF_max                      =   1.1117747335203880E+05
(PID.TID 0000.0001) %MON DYF_min                      =   1.1117747335203880E+05
(PID.TID 0000.0001) %MON DYF_mean                     =   1.1117747335203880E+05
(PID.TID 0000.0001) %MON DYF_sd                       =   0.0000000000000000E+00
(PID.TID 0000.0001) %MON DYG_max                      =   1.1117747335203880E+05
(PID.TID 0000.0001) %MON DYG_min                      =   1.1117747335203880E+05
(PID.TID 0000.0001) %MON DYG_mean                     =   1.1117747335203880E+05
(PID.TID 0000.0001) %MON DYG_sd                       =   0.0000000000000000E+00
(PID.TID 0000.0001) %MON DYU_max                      =   1.1117747335203880E+05
(PID.TID 0000.0001) %MON DYU_min                      =   1.1117747335203880E+05
(PID.TID 0000.0001) %MON DYU_mean                     =   1.1117747335203880E+05
(PID.TID 0000.0001) %MON DYU_sd                       =   0.0000000000000000E+00
(PID.TID 0000.0001) %MON RA_max                       =   8.8159707668415375E+09
(PID.TID 0000.0001) %MON RA_min                       =   8.8159707668415375E+09
(PID.TID 0000.0001) %MON RA_mean                      =   8.8159707668415375E+09
(PID.TID 0000.0001) %MON RA_sd                        =   0.0000000000000000E+00
(PID.TID 0000.0001) %MON RAW_max                      =   8.8159707668415375E+09
(PID.TID 0000.0001) %MON RAW_min                      =   8.8159707668415375E+09
(PID.TID 0000.0001) %MON RAW_mean                     =   8.8159707668415375E+09
(PID.TID 0000.0001) %MON RAW_sd                       =   0.0000000000000000E+00
(PID.TID 0000.0001) %MON RAS_max                      =   8.7400333492513199E+09
(PID.TID 0000.0001) %MON RAS_min                      =   8.7400333492513199E+09
(PID.TID 0000.0001) %MON RAS_mean                     =   8.7400333492513199E+09
(PID.TID 0000.0001) %MON RAS_sd                       =   0.0000000000000000E+00
(PID.TID 0000.0001) %MON RAZ_max                      =   8.7400333492513199E+09
(PID.TID 0000.0001) %MON RAZ_min                      =   8.7400333492513199E+09
(PID.TID 0000.0001) %MON RAZ_mean                     =   8.7400333492513199E+09
(PID.TID 0000.0001) %MON RAZ_sd                       =   0.0000000000000000E+00
(PID.TID 0000.0001) %MON AngleCS_max                  =   1.0000000000000000E+00
(PID.TID 0000.0001) %MON AngleCS_min                  =   1.0000000000000000E+00
(PID.TID 0000.0001) %MON AngleCS_mean                 =   1.0000000000000000E+00
(PID.TID 0000.0001) %MON AngleCS_sd                   =   0.0000000000000000E+00
(PID.TID 0000.0001) %MON AngleSN_max                  =   0.0000000000000000E+00
(PID.TID 0000.0001) %MON AngleSN_min                  =   0.0000000000000000E+00
(PID.TID 0000.0001) %MON AngleSN_mean                 =   0.0000000000000000E+00
(PID.TID 0000.0001) %MON AngleSN_sd                   =   0.0000000000000000E+00
(PID.TID 0000.0001)  MDS_READ_FIELD: opening global file: ../input/input/bathyneg.bin
(PID.TID 0000.0001) // =======================================================
(PID.TID 0000.0001) // Field Model R_low (ini_masks_etc)
(PID.TID 0000.0001) // CMIN =         -3.495000000000000E+03
(PID.TID 0000.0001) // CMAX =         -3.495000000000000E+03
(PID.TID 0000.0001) // CINT =          0.000000000000000E+00
(PID.TID 0000.0001) // SYMBOLS (CMIN->CMAX): -abcdefghijklmnopqrstuvwxyz+
(PID.TID 0000.0001) //                  0.0: .
(PID.TID 0000.0001) // RANGE I (Lo:Hi:Step):(    -1:     3:     1)
(PID.TID 0000.0001) // RANGE J (Lo:Hi:Step):(     3:    -1:    -1)
(PID.TID 0000.0001) // RANGE K (Lo:Hi:Step):(   1:   1:   1)
(PID.TID 0000.0001) // =======================================================
(PID.TID 0000.0001) // =======================================================
(PID.TID 0000.0001) // END OF FIELD                                          =
(PID.TID 0000.0001) // =======================================================
(PID.TID 0000.0001) 
(PID.TID 0000.0001) // =======================================================
(PID.TID 0000.0001) // Field Model Ro_surf (ini_masks_etc)
(PID.TID 0000.0001) // CMIN =          1.000000000000000E+32
(PID.TID 0000.0001) // CMAX =         -1.000000000000000E+32
(PID.TID 0000.0001) // CINT =          0.000000000000000E+00
(PID.TID 0000.0001) // SYMBOLS (CMIN->CMAX): -abcdefghijklmnopqrstuvwxyz+
(PID.TID 0000.0001) //                  0.0: .
(PID.TID 0000.0001) // RANGE I (Lo:Hi:Step):(    -1:     3:     1)
(PID.TID 0000.0001) // RANGE J (Lo:Hi:Step):(     3:    -1:    -1)
(PID.TID 0000.0001) // RANGE K (Lo:Hi:Step):(   1:   1:   1)
(PID.TID 0000.0001) // =======================================================
(PID.TID 0000.0001) // =======================================================
(PID.TID 0000.0001) // END OF FIELD                                          =
(PID.TID 0000.0001) // =======================================================
(PID.TID 0000.0001) 
(PID.TID 0000.0001) // =======================================================
(PID.TID 0000.0001) // Field hFacC at iteration          0
(PID.TID 0000.0001) // CMIN =          1.000000000000000E+00
(PID.TID 0000.0001) // CMAX =          1.000000000000000E+00
(PID.TID 0000.0001) // CINT =          0.000000000000000E+00
(PID.TID 0000.0001) // SYMBOLS (CMIN->CMAX): -abcdefghijklmnopqrstuvwxyz+
(PID.TID 0000.0001) //                  0.0: .
(PID.TID 0000.0001) // RANGE I (Lo:Hi:Step):(    -1:     3:     1)
(PID.TID 0000.0001) // RANGE J (Lo:Hi:Step):(     3:    -1:    -1)
(PID.TID 0000.0001) // RANGE K (Lo:Hi:Step):(   1:   1:   1)
(PID.TID 0000.0001) // =======================================================
(PID.TID 0000.0001) // =======================================================
(PID.TID 0000.0001) // END OF FIELD                                          =
(PID.TID 0000.0001) // =======================================================
(PID.TID 0000.0001) 
(PID.TID 0000.0001) // =======================================================
(PID.TID 0000.0001) // Field hFacW at iteration          0
(PID.TID 0000.0001) // CMIN =          1.000000000000000E+00
(PID.TID 0000.0001) // CMAX =          1.000000000000000E+00
(PID.TID 0000.0001) // CINT =          0.000000000000000E+00
(PID.TID 0000.0001) // SYMBOLS (CMIN->CMAX): -abcdefghijklmnopqrstuvwxyz+
(PID.TID 0000.0001) //                  0.0: .
(PID.TID 0000.0001) // RANGE I (Lo:Hi:Step):(    -1:     3:     1)
(PID.TID 0000.0001) // RANGE J (Lo:Hi:Step):(     3:    -1:    -1)
(PID.TID 0000.0001) // RANGE K (Lo:Hi:Step):(   1:   1:   1)
(PID.TID 0000.0001) // =======================================================
(PID.TID 0000.0001) // =======================================================
(PID.TID 0000.0001) // END OF FIELD                                          =
(PID.TID 0000.0001) // =======================================================
(PID.TID 0000.0001) 
(PID.TID 0000.0001) // =======================================================
(PID.TID 0000.0001) // Field hFacS at iteration          0
(PID.TID 0000.0001) // CMIN =          1.000000000000000E+00
(PID.TID 0000.0001) // CMAX =          1.000000000000000E+00
(PID.TID 0000.0001) // CINT =          0.000000000000000E+00
(PID.TID 0000.0001) // SYMBOLS (CMIN->CMAX): -abcdefghijklmnopqrstuvwxyz+
(PID.TID 0000.0001) //                  0.0: .
(PID.TID 0000.0001) // RANGE I (Lo:Hi:Step):(    -1:     3:     1)
(PID.TID 0000.0001) // RANGE J (Lo:Hi:Step):(     3:    -1:    -1)
(PID.TID 0000.0001) // RANGE K (Lo:Hi:Step):(   1:   1:   1)
(PID.TID 0000.0001) // =======================================================
(PID.TID 0000.0001) // =======================================================
(PID.TID 0000.0001) // END OF FIELD                                          =
(PID.TID 0000.0001) // =======================================================
(PID.TID 0000.0001) 
(PID.TID 0000.0001) 
(PID.TID 0000.0001) // =======================================================
(PID.TID 0000.0001) // Calendar configuration >>> START <<<
(PID.TID 0000.0001) // =======================================================
(PID.TID 0000.0001) 
(PID.TID 0000.0001) modelstart = /* Start time of the model integration [s] */
(PID.TID 0000.0001)                 0.000000000000000E+00
(PID.TID 0000.0001)     ;
(PID.TID 0000.0001) modelend  = /* End time of the model integration [s] */
(PID.TID 0000.0001)                 1.440000000000000E+04
(PID.TID 0000.0001)     ;
(PID.TID 0000.0001) modelstep = /* Time interval for a model forward step [s] */
(PID.TID 0000.0001)                 3.600000000000000E+03
(PID.TID 0000.0001)     ;
(PID.TID 0000.0001) usingGregorianCalendar= /* Calendar Type: Gregorian Calendar */
(PID.TID 0000.0001)                   F
(PID.TID 0000.0001)     ;
(PID.TID 0000.0001) usingJulianCalendar = /* Calendar Type: Julian Calendar */
(PID.TID 0000.0001)                   F
(PID.TID 0000.0001)     ;
(PID.TID 0000.0001) usingModelCalendar  = /* Calendar Type: Model Calendar */
(PID.TID 0000.0001)                   T
(PID.TID 0000.0001)     ;
(PID.TID 0000.0001) modelstartdate YYYYMMDD = /* Model start date YYYY-MM-DD */
(PID.TID 0000.0001)                19920101
(PID.TID 0000.0001)     ;
(PID.TID 0000.0001)   modelstartdate HHMMSS = /* Model start date HH-MM-SS  */
(PID.TID 0000.0001)                       0
(PID.TID 0000.0001)     ;
(PID.TID 0000.0001) modelenddate   YYYYMMDD = /* Model end date YYYY-MM-DD */
(PID.TID 0000.0001)                19920101
(PID.TID 0000.0001)     ;
(PID.TID 0000.0001)   modelenddate   HHMMSS = /* Model end date HH-MM-SS  */
(PID.TID 0000.0001)                   40000
(PID.TID 0000.0001)     ;
(PID.TID 0000.0001) intyears = /* Number of calendar years affected by the integration */
(PID.TID 0000.0001)                       1
(PID.TID 0000.0001)     ;
(PID.TID 0000.0001) intmonths= /* Number of calendar months affected by the integration */
(PID.TID 0000.0001)                       1
(PID.TID 0000.0001)     ;
(PID.TID 0000.0001) intdays = /* Number of calendar days affected by the integration */
(PID.TID 0000.0001)                       1
(PID.TID 0000.0001)     ;
(PID.TID 0000.0001) modeliter0 = /* Base timestep number  */
(PID.TID 0000.0001)                       0
(PID.TID 0000.0001)     ;
(PID.TID 0000.0001) modeliterend = /* Final timestep number  */
(PID.TID 0000.0001)                       4
(PID.TID 0000.0001)     ;
(PID.TID 0000.0001) modelintsteps= /* Number of model timesteps  */
(PID.TID 0000.0001)                       4
(PID.TID 0000.0001)     ;
(PID.TID 0000.0001) 
(PID.TID 0000.0001) // =======================================================
(PID.TID 0000.0001) // Calendar configuration  >>> END <<<
(PID.TID 0000.0001) // =======================================================
(PID.TID 0000.0001) 
(PID.TID 0000.0001) GAD_INIT_FIXED: GAD_OlMinSize=  2  0  1
(PID.TID 0000.0001) 
(PID.TID 0000.0001) // ===================================
(PID.TID 0000.0001) // GAD parameters :
(PID.TID 0000.0001) // ===================================
(PID.TID 0000.0001) tempAdvScheme =   /* Temp. Horiz.Advection scheme selector */
(PID.TID 0000.0001)                       3
(PID.TID 0000.0001)     ;
(PID.TID 0000.0001) tempVertAdvScheme =   /* Temp. Vert. Advection scheme selector */
(PID.TID 0000.0001)                       3
(PID.TID 0000.0001)     ;
(PID.TID 0000.0001) tempMultiDimAdvec =   /* use Muti-Dim Advec method for Temp */
(PID.TID 0000.0001)                   F
(PID.TID 0000.0001)     ;
(PID.TID 0000.0001) tempSOM_Advection = /* use 2nd Order Moment Advection for Temp */
(PID.TID 0000.0001)                   F
(PID.TID 0000.0001)     ;
(PID.TID 0000.0001) AdamsBashforthGt = /* apply Adams-Bashforth extrapolation on Gt */
(PID.TID 0000.0001)                   T
(PID.TID 0000.0001)     ;
(PID.TID 0000.0001) AdamsBashforth_T = /* apply Adams-Bashforth extrapolation on Temp */
(PID.TID 0000.0001)                   F
(PID.TID 0000.0001)     ;
(PID.TID 0000.0001) saltAdvScheme =   /* Salt. Horiz.advection scheme selector */
(PID.TID 0000.0001)                       3
(PID.TID 0000.0001)     ;
(PID.TID 0000.0001) saltVertAdvScheme =   /* Salt. Vert. Advection scheme selector */
(PID.TID 0000.0001)                       3
(PID.TID 0000.0001)     ;
(PID.TID 0000.0001) saltMultiDimAdvec =   /* use Muti-Dim Advec method for Salt */
(PID.TID 0000.0001)                   F
(PID.TID 0000.0001)     ;
(PID.TID 0000.0001) saltSOM_Advection = /* use 2nd Order Moment Advection for Salt */
(PID.TID 0000.0001)                   F
(PID.TID 0000.0001)     ;
(PID.TID 0000.0001) AdamsBashforthGs = /* apply Adams-Bashforth extrapolation on Gs */
(PID.TID 0000.0001)                   F
(PID.TID 0000.0001)     ;
(PID.TID 0000.0001) AdamsBashforth_S = /* apply Adams-Bashforth extrapolation on Salt */
(PID.TID 0000.0001)                   F
(PID.TID 0000.0001)     ;
(PID.TID 0000.0001) // ===================================
(PID.TID 0000.0001) 
(PID.TID 0000.0001) // =======================================================
(PID.TID 0000.0001) // External forcing (EXF) configuration >>> START <<<
(PID.TID 0000.0001) // =======================================================
(PID.TID 0000.0001) 
(PID.TID 0000.0001)  EXF general parameters:
(PID.TID 0000.0001) 
(PID.TID 0000.0001) exf_iprec = /* exf file precision */
(PID.TID 0000.0001)                      32
(PID.TID 0000.0001)     ;
(PID.TID 0000.0001) useExfYearlyFields = /* add extension _YEAR to input file names */
(PID.TID 0000.0001)                   T
(PID.TID 0000.0001)     ;
(PID.TID 0000.0001) twoDigitYear = /* use 2-digit year extension */
(PID.TID 0000.0001)                   T
(PID.TID 0000.0001)     ;
(PID.TID 0000.0001) exf_verbose = /* print more messages to STDOUT */
(PID.TID 0000.0001)                   F
(PID.TID 0000.0001)     ;
(PID.TID 0000.0001) useExfCheckRange = /* check for fields range */
(PID.TID 0000.0001)                   F
(PID.TID 0000.0001)     ;
(PID.TID 0000.0001) exf_monFreq = /* EXF monitor frequency [ s ] */
(PID.TID 0000.0001)                 1.000000000000000E+00
(PID.TID 0000.0001)     ;
(PID.TID 0000.0001) repeatPeriod = /* period for cycling forcing dataset [ s ] */
(PID.TID 0000.0001)                 0.000000000000000E+00
(PID.TID 0000.0001)     ;
(PID.TID 0000.0001) climTempFreeze= /* Minimum climatological temperature [deg.C] */
(PID.TID 0000.0001)                -1.900000000000000E+00
(PID.TID 0000.0001)     ;
(PID.TID 0000.0001) windStressMax = /* Maximum absolute windstress [ Pa ] */
(PID.TID 0000.0001)                 2.000000000000000E+00
(PID.TID 0000.0001)     ;
(PID.TID 0000.0001) stressIsOnCgrid = /* set u,v_stress on Arakawa C-grid */
(PID.TID 0000.0001)                   F
(PID.TID 0000.0001)     ;
(PID.TID 0000.0001) cen2kel = /* conversion of deg. Centigrade to Kelvin [K] */
(PID.TID 0000.0001)                 2.731500000000000E+02
(PID.TID 0000.0001)     ;
(PID.TID 0000.0001) gravity_mks= /* gravitational acceleration [m/s^2] */
(PID.TID 0000.0001)                 9.810000000000000E+00
(PID.TID 0000.0001)     ;
(PID.TID 0000.0001) atmrho =  /* mean atmospheric density [kg/m^3] */
(PID.TID 0000.0001)                 1.200000000000000E+00
(PID.TID 0000.0001)     ;
(PID.TID 0000.0001) atmcp =  /* mean atmospheric specific heat [J/kg/K] */
(PID.TID 0000.0001)                 1.005000000000000E+03
(PID.TID 0000.0001)     ;
(PID.TID 0000.0001) flamb =  /* latent heat of evaporation [J/kg] */
(PID.TID 0000.0001)                 2.500000000000000E+06
(PID.TID 0000.0001)     ;
(PID.TID 0000.0001) flami =  /* latent heat of pure-ice melting [J/kg] */
(PID.TID 0000.0001)                 3.340000000000000E+05
(PID.TID 0000.0001)     ;
(PID.TID 0000.0001) cvapor_fac = /* const. for Saturation calculation [?] */
(PID.TID 0000.0001)                 6.403800000000000E+05
(PID.TID 0000.0001)     ;
(PID.TID 0000.0001) cvapor_exp = /* const. for Saturation calculation [?] */
(PID.TID 0000.0001)                 5.107400000000000E+03
(PID.TID 0000.0001)     ;
(PID.TID 0000.0001) cvapor_fac_ice= /* const. for Saturation calculation [?] */
(PID.TID 0000.0001)                 1.163780000000000E+07
(PID.TID 0000.0001)     ;
(PID.TID 0000.0001) cvapor_exp_ice= /* const. for Saturation calculation [?] */
(PID.TID 0000.0001)                 5.897800000000000E+03
(PID.TID 0000.0001)     ;
(PID.TID 0000.0001) humid_fac = /* humidity coef. in virtual temp. [(kg/kg)^-1] */
(PID.TID 0000.0001)                 6.060000000000000E-01
(PID.TID 0000.0001)     ;
(PID.TID 0000.0001) gamma_blk = /* adiabatic lapse rate [?] */
(PID.TID 0000.0001)                 1.000000000000000E-02
(PID.TID 0000.0001)     ;
(PID.TID 0000.0001) saltsat = /* reduction of Qsat over salty water [-] */
(PID.TID 0000.0001)                 9.800000000000000E-01
(PID.TID 0000.0001)     ;
(PID.TID 0000.0001) noNegativeEvap = /* prevent negative Evaporation */
(PID.TID 0000.0001)                   F
(PID.TID 0000.0001)     ;
(PID.TID 0000.0001) sstExtrapol = /* extrapolation coeff from lev. 1 & 2 to surf [-] */
(PID.TID 0000.0001)                 0.000000000000000E+00
(PID.TID 0000.0001)     ;
(PID.TID 0000.0001) cDrag_1 = /* coef used in drag calculation [?] */
(PID.TID 0000.0001)                 2.700000000000000E-03
(PID.TID 0000.0001)     ;
(PID.TID 0000.0001) cDrag_2 = /* coef used in drag calculation [?] */
(PID.TID 0000.0001)                 1.420000000000000E-04
(PID.TID 0000.0001)     ;
(PID.TID 0000.0001) cDrag_3 = /* coef used in drag calculation [?] */
(PID.TID 0000.0001)                 7.640000000000000E-05
(PID.TID 0000.0001)     ;
(PID.TID 0000.0001) cStanton_1 = /* coef used in Stanton number calculation [?] */
(PID.TID 0000.0001)                 3.270000000000000E-02
(PID.TID 0000.0001)     ;
(PID.TID 0000.0001) cStanton_2 = /* coef used in Stanton number calculation [?] */
(PID.TID 0000.0001)                 1.800000000000000E-02
(PID.TID 0000.0001)     ;
(PID.TID 0000.0001) cDalton = /* coef used in Dalton number calculation [?] */
(PID.TID 0000.0001)                 3.460000000000000E-02
(PID.TID 0000.0001)     ;
(PID.TID 0000.0001) exf_scal_BulkCdn= /* Drag coefficient scaling factor [-] */
(PID.TID 0000.0001)                 1.000000000000000E+00
(PID.TID 0000.0001)     ;
(PID.TID 0000.0001) zolmin = /* minimum stability parameter [?] */
(PID.TID 0000.0001)                -1.000000000000000E+02
(PID.TID 0000.0001)     ;
(PID.TID 0000.0001) psim_fac = /* coef used in turbulent fluxes calculation [-] */
(PID.TID 0000.0001)                 5.000000000000000E+00
(PID.TID 0000.0001)     ;
(PID.TID 0000.0001) zref =  /* reference height [ m ] */
(PID.TID 0000.0001)                 1.000000000000000E+01
(PID.TID 0000.0001)     ;
(PID.TID 0000.0001) hu =  /* height of mean wind [ m ] */
(PID.TID 0000.0001)                 1.000000000000000E+01
(PID.TID 0000.0001)     ;
(PID.TID 0000.0001) ht =  /* height of mean temperature [ m ] */
(PID.TID 0000.0001)                 2.000000000000000E+00
(PID.TID 0000.0001)     ;
(PID.TID 0000.0001) hq =  /* height of mean spec.humidity [ m ] */
(PID.TID 0000.0001)                 2.000000000000000E+00
(PID.TID 0000.0001)     ;
(PID.TID 0000.0001) uMin = /* minimum wind speed [m/s] */
(PID.TID 0000.0001)                 5.000000000000000E-01
(PID.TID 0000.0001)     ;
(PID.TID 0000.0001) useStabilityFct_overIce= /* transfert Coeffs over sea-ice depend on stability */
(PID.TID 0000.0001)                   F
(PID.TID 0000.0001)     ;
(PID.TID 0000.0001) exf_iceCd = /* drag coefficient over sea-ice (fixed) [-] */
(PID.TID 0000.0001)                 1.630000000000000E-03
(PID.TID 0000.0001)     ;
(PID.TID 0000.0001) exf_iceCe = /* transfert coeff. over sea-ice, for Evap (fixed) [-] */
(PID.TID 0000.0001)                 1.630000000000000E-03
(PID.TID 0000.0001)     ;
(PID.TID 0000.0001) exf_iceCh = /* transfert coeff. over sea-ice, Sens.Heat.(fixed)[-] */
(PID.TID 0000.0001)                 1.630000000000000E-03
(PID.TID 0000.0001)     ;
(PID.TID 0000.0001) exf_albedo =  /* Sea-water albedo [-] */
(PID.TID 0000.0001)                 1.500000000000000E-01
(PID.TID 0000.0001)     ;
(PID.TID 0000.0001) useExfZenAlbedo = /* Sea-water albedo varies with zenith angle */
(PID.TID 0000.0001)                   F
(PID.TID 0000.0001)     ;
(PID.TID 0000.0001) select_ZenAlbedo = /* Sea-water albedo computation method */
(PID.TID 0000.0001)                       0
(PID.TID 0000.0001)     ;
(PID.TID 0000.0001) useExfZenIncoming = /* compute incoming solar radiation */
(PID.TID 0000.0001)                   F
(PID.TID 0000.0001)     ;
(PID.TID 0000.0001) ocean_emissivity = /* longwave ocean-surface emissivity [-] */
(PID.TID 0000.0001)                 9.700176366843034E-01
(PID.TID 0000.0001)     ;
(PID.TID 0000.0001) ice_emissivity = /* longwave seaice emissivity [-] */
(PID.TID 0000.0001)                 9.500000000000000E-01
(PID.TID 0000.0001)     ;
(PID.TID 0000.0001) snow_emissivity = /* longwave snow  emissivity [-] */
(PID.TID 0000.0001)                 9.500000000000000E-01
(PID.TID 0000.0001)     ;
(PID.TID 0000.0001) 
(PID.TID 0000.0001)  EXF main CPP flags:
(PID.TID 0000.0001) 
(PID.TID 0000.0001) // USE_EXF_INTERPOLATION:          NOT defined
(PID.TID 0000.0001) // ALLOW_ATM_TEMP:                     defined
(PID.TID 0000.0001) // ALLOW_ATM_WIND (useAtmWind):        defined
(PID.TID 0000.0001) // ALLOW_DOWNWARD_RADIATION:           defined
(PID.TID 0000.0001) // ALLOW_BULKFORMULAE:                 defined
(PID.TID 0000.0001) 
(PID.TID 0000.0001)    Net shortwave flux forcing starts at                0.
(PID.TID 0000.0001)    Net shortwave flux forcing period is                0.
(PID.TID 0000.0001)    Net shortwave flux forcing is read from file:
(PID.TID 0000.0001)    >>    <<
(PID.TID 0000.0001) 
(PID.TID 0000.0001)    Zonal wind forcing starts at                          0.
(PID.TID 0000.0001)    Zonal wind forcing period is                          0.
(PID.TID 0000.0001)    Zonal wind forcing is read from file:
(PID.TID 0000.0001)    >>    <<
(PID.TID 0000.0001) 
(PID.TID 0000.0001)    Meridional wind forcing starts at                     0.
(PID.TID 0000.0001)    Meridional wind forcing period is                     0.
(PID.TID 0000.0001)    Meridional wind forcing is read from file:
(PID.TID 0000.0001)    >>    <<
(PID.TID 0000.0001) 
(PID.TID 0000.0001)    Atmospheric temperature starts at                     0.
(PID.TID 0000.0001)    Atmospheric temperature period is                     0.
(PID.TID 0000.0001)    Atmospheric temperature is read from file:
(PID.TID 0000.0001)    >>    <<
(PID.TID 0000.0001) 
(PID.TID 0000.0001)    Atmospheric specific humidity starts at               0.
(PID.TID 0000.0001)    Atmospheric specific humidity period is               0.
(PID.TID 0000.0001)    Atmospheric specific humidity is read from file:
(PID.TID 0000.0001)    >>    <<
(PID.TID 0000.0001) 
(PID.TID 0000.0001)    Net longwave flux forcing starts at                 0.
(PID.TID 0000.0001)    Net longwave flux forcing period is                 0.
(PID.TID 0000.0001)    Net longwave flux forcing is read from file:
(PID.TID 0000.0001)    >>    <<
(PID.TID 0000.0001) 
(PID.TID 0000.0001)    Precipitation data set starts at                      0.
(PID.TID 0000.0001)    Precipitation data period is                          0.
(PID.TID 0000.0001)    Precipitation data is read from file:
(PID.TID 0000.0001)    >>    <<
(PID.TID 0000.0001) 
(PID.TID 0000.0001) // EXF_READ_EVAP:                  NOT defined
(PID.TID 0000.0001) 
(PID.TID 0000.0001) // ALLOW_RUNOFF:                       defined
(PID.TID 0000.0001)    Runoff starts at               0.
(PID.TID 0000.0001)    Runoff period is               0.
(PID.TID 0000.0001)    Runoff is read from file:
(PID.TID 0000.0001)    >>    <<
(PID.TID 0000.0001) 
(PID.TID 0000.0001)    Downward shortwave flux forcing starts at                0.
(PID.TID 0000.0001)    Downward shortwave flux forcing period is                0.
(PID.TID 0000.0001)    Downward shortwave flux forcing is read from file:
(PID.TID 0000.0001)    >>    <<
(PID.TID 0000.0001) 
(PID.TID 0000.0001)    Downward longwave flux forcing starts at                 0.
(PID.TID 0000.0001)    Downward longwave flux forcing period is                 0.
(PID.TID 0000.0001)    Downward longwave flux forcing is read from file:
(PID.TID 0000.0001)    >>    <<
(PID.TID 0000.0001) 
(PID.TID 0000.0001)    Atmospheric pressure forcing starts at                0.
(PID.TID 0000.0001)    Atmospheric pressure forcing period is                0.
(PID.TID 0000.0001)    Atmospheric pressureforcing is read from file:
(PID.TID 0000.0001)    >>    <<
(PID.TID 0000.0001) 
(PID.TID 0000.0001) // =======================================================
(PID.TID 0000.0001) // External forcing (EXF) climatology configuration :
(PID.TID 0000.0001) // =======================================================
(PID.TID 0000.0001) 
(PID.TID 0000.0001) // ALLOW_CLIMSST_RELAXATION:       NOT defined
(PID.TID 0000.0001) // ALLOW_CLIMSSS_RELAXATION:       NOT defined
(PID.TID 0000.0001) 
(PID.TID 0000.0001) // =======================================================
(PID.TID 0000.0001) // External forcing (EXF) configuration  >>> END <<<
(PID.TID 0000.0001) // =======================================================
(PID.TID 0000.0001) 
(PID.TID 0000.0001) ------------------------------------------------------------
(PID.TID 0000.0001) DIAGNOSTICS_SET_LEVELS: done
(PID.TID 0000.0001)  Total Nb of available Diagnostics: ndiagt=   488
(PID.TID 0000.0001)  write list of available Diagnostics to file: available_diagnostics.log
(PID.TID 0000.0001) SETDIAG: Allocate 35 x  1 Levels for Diagnostic #   156 TRAC01
(PID.TID 0000.0001) SETDIAG: Allocate 35 x  1 Levels for Diagnostic #   169 TRAC02
(PID.TID 0000.0001) SETDIAG: Allocate 35 x  1 Levels for Diagnostic #   182 TRAC03
(PID.TID 0000.0001) SETDIAG: Allocate 35 x  1 Levels for Diagnostic #   195 TRAC04
(PID.TID 0000.0001) SETDIAG: Allocate 35 x  1 Levels for Diagnostic #   208 TRAC05
(PID.TID 0000.0001) SETDIAG: Allocate 35 x  1 Levels for Diagnostic #   221 TRAC06
(PID.TID 0000.0001) SETDIAG: Allocate 35 x  1 Levels for Diagnostic #   234 TRAC07
(PID.TID 0000.0001) SETDIAG: Allocate 35 x  1 Levels for Diagnostic #   247 TRAC08
(PID.TID 0000.0001) SETDIAG: Allocate 35 x  1 Levels for Diagnostic #   260 TRAC09
(PID.TID 0000.0001) SETDIAG: Allocate 35 x  1 Levels for Diagnostic #   273 TRAC10
(PID.TID 0000.0001) SETDIAG: Allocate 35 x  1 Levels for Diagnostic #   286 TRAC11
(PID.TID 0000.0001) SETDIAG: Allocate 35 x  1 Levels for Diagnostic #   299 TRAC12
(PID.TID 0000.0001) SETDIAG: Allocate 35 x  1 Levels for Diagnostic #   312 TRAC13
(PID.TID 0000.0001) SETDIAG: Allocate 35 x  1 Levels for Diagnostic #   325 TRAC14
(PID.TID 0000.0001) SETDIAG: Allocate 35 x  1 Levels for Diagnostic #   338 TRAC15
(PID.TID 0000.0001) SETDIAG: Allocate 35 x  1 Levels for Diagnostic #   351 TRAC16
(PID.TID 0000.0001) SETDIAG: Allocate 35 x  1 Levels for Diagnostic #   364 TRAC17
(PID.TID 0000.0001) SETDIAG: Allocate 35 x  1 Levels for Diagnostic #   377 TRAC18
(PID.TID 0000.0001) SETDIAG: Allocate 35 x  1 Levels for Diagnostic #   390 TRAC19
(PID.TID 0000.0001) SETDIAG: Allocate 35 x  1 Levels for Diagnostic #   403 TRAC20
(PID.TID 0000.0001) SETDIAG: Allocate 35 x  1 Levels for Diagnostic #   416 TRAC21
(PID.TID 0000.0001) SETDIAG: Allocate 35 x  1 Levels for Diagnostic #   434 PAR01
(PID.TID 0000.0001) SETDIAG: Allocate 35 x  1 Levels for Diagnostic #   441 DIC_c01
(PID.TID 0000.0001) SETDIAG: Allocate 35 x  1 Levels for Diagnostic #   452 DIC_c02
(PID.TID 0000.0001) SETDIAG: Allocate 35 x  1 Levels for Diagnostic #   442 c01_DOC
(PID.TID 0000.0001) SETDIAG: Allocate 35 x  1 Levels for Diagnostic #   453 c02_DOC
(PID.TID 0000.0001) SETDIAG: Allocate 35 x  1 Levels for Diagnostic #   443 c01_POC
(PID.TID 0000.0001) SETDIAG: Allocate 35 x  1 Levels for Diagnostic #   454 c02_POC
(PID.TID 0000.0001) SETDIAG: Allocate 35 x  1 Levels for Diagnostic #   433 PARF
(PID.TID 0000.0001) SETDIAG: Allocate 35 x  1 Levels for Diagnostic #   430 atten
(PID.TID 0000.0001) SETDIAG: Allocate 35 x  1 Levels for Diagnostic #   432 surfPAR
(PID.TID 0000.0001) SETDIAG: Allocate 35 x  1 Levels for Diagnostic #   431 exfPAR
(PID.TID 0000.0001) SETDIAG: Allocate 35 x  1 Levels for Diagnostic #   435 limn01
(PID.TID 0000.0001) SETDIAG: Allocate 35 x  1 Levels for Diagnostic #   436 limp01
(PID.TID 0000.0001) SETDIAG: Allocate 35 x  1 Levels for Diagnostic #   437 limsi01
(PID.TID 0000.0001) SETDIAG: Allocate 35 x  1 Levels for Diagnostic #   438 limfe01
(PID.TID 0000.0001) SETDIAG: Allocate 35 x  1 Levels for Diagnostic #   439 limI01
(PID.TID 0000.0001) SETDIAG: Allocate 35 x  1 Levels for Diagnostic #   440 limT01
(PID.TID 0000.0001) SETDIAG: Allocate 35 x  1 Levels for Diagnostic #   444 c01_c
(PID.TID 0000.0001) SETDIAG: Allocate 35 x  1 Levels for Diagnostic #   455 c02_c
(PID.TID 0000.0001) SETDIAG: Allocate 35 x  1 Levels for Diagnostic #   467 c_c03
(PID.TID 0000.0001) SETDIAG: Allocate 35 x  1 Levels for Diagnostic #   478 c_c04
(PID.TID 0000.0001) SETDIAG: Allocate 35 x  1 Levels for Diagnostic #   479 c_DOC
(PID.TID 0000.0001) SETDIAG: Allocate 35 x  1 Levels for Diagnostic #   480 c_POC
(PID.TID 0000.0001) SETDIAG: Allocate 35 x  1 Levels for Diagnostic #   481 c_PIC
(PID.TID 0000.0001) SETDIAG: Allocate 35 x  1 Levels for Diagnostic #   482 n_DON
(PID.TID 0000.0001) SETDIAG: Allocate 35 x  1 Levels for Diagnostic #   483 n_PON
(PID.TID 0000.0001) SETDIAG: Allocate 35 x  1 Levels for Diagnostic #   484 p_DOP
(PID.TID 0000.0001) SETDIAG: Allocate 35 x  1 Levels for Diagnostic #   485 p_POP
(PID.TID 0000.0001)   space allocated for all diagnostics:    1715 levels
(PID.TID 0000.0001) DIAGNOSTICS_SET_POINTERS: Set levels for Outp.Stream: darwin
(PID.TID 0000.0001)  Levels:       1.   2.   3.   4.   5.   6.   7.   8.   9.  10.  11.  12.  13.  14.  15.  16.  17.  18.  19.  20.
(PID.TID 0000.0001)  Levels:      21.  22.  23.  24.  25.  26.  27.  28.  29.  30.  31.  32.  33.  34.  35.
(PID.TID 0000.0001) DIAGNOSTICS_SET_POINTERS: done
(PID.TID 0000.0001) ------------------------------------------------------------
(PID.TID 0000.0001) DIAGSTATS_SET_REGIONS: define no region
(PID.TID 0000.0001) ------------------------------------------------------------
(PID.TID 0000.0001)   space allocated for all stats-diags:       0 levels
(PID.TID 0000.0001) DIAGSTATS_SET_POINTERS: done
(PID.TID 0000.0001) ------------------------------------------------------------
(PID.TID 0000.0001) %MON fCori_max                    =  -1.0222233858954729E-04
(PID.TID 0000.0001) %MON fCori_min                    =  -1.0222233858954729E-04
(PID.TID 0000.0001) %MON fCori_mean                   =  -1.0222233858954729E-04
(PID.TID 0000.0001) %MON fCori_sd                     =   0.0000000000000000E+00
(PID.TID 0000.0001) %MON fCoriG_max                   =  -1.0312619976227580E-04
(PID.TID 0000.0001) %MON fCoriG_min                   =  -1.0312619976227580E-04
(PID.TID 0000.0001) %MON fCoriG_mean                  =  -1.0312619976227580E-04
(PID.TID 0000.0001) %MON fCoriG_sd                    =   0.0000000000000000E+00
(PID.TID 0000.0001) %MON fCoriCos_max                 =   1.0402220747562310E-04
(PID.TID 0000.0001) %MON fCoriCos_min                 =   1.0402220747562310E-04
(PID.TID 0000.0001) %MON fCoriCos_mean                =   1.0402220747562310E-04
(PID.TID 0000.0001) %MON fCoriCos_sd                  =   0.0000000000000000E+00
(PID.TID 0000.0001) INI_CG2D: CG2D normalisation factor =  2.0407738173224081E-04
(PID.TID 0000.0001) 
(PID.TID 0000.0001) // =======================================================
(PID.TID 0000.0001) // Model configuration
(PID.TID 0000.0001) // =======================================================
(PID.TID 0000.0001) //
(PID.TID 0000.0001) // "Physical" paramters ( PARM01 in namelist )
(PID.TID 0000.0001) //
(PID.TID 0000.0001) buoyancyRelation = /* Type of relation to get Buoyancy */
(PID.TID 0000.0001)               'OCEANIC'
(PID.TID 0000.0001)     ;
(PID.TID 0000.0001) fluidIsAir   =  /* fluid major constituent is Air */
(PID.TID 0000.0001)                   F
(PID.TID 0000.0001)     ;
(PID.TID 0000.0001) fluidIsWater =  /* fluid major constituent is Water */
(PID.TID 0000.0001)                   T
(PID.TID 0000.0001)     ;
(PID.TID 0000.0001) usingPCoords =  /* use p (or p*) vertical coordinate */
(PID.TID 0000.0001)                   F
(PID.TID 0000.0001)     ;
(PID.TID 0000.0001) usingZCoords =  /* use z (or z*) vertical coordinate */
(PID.TID 0000.0001)                   T
(PID.TID 0000.0001)     ;
(PID.TID 0000.0001) tRef =   /* Reference temperature profile ( oC or K ) */
(PID.TID 0000.0001)                 2.650000000000000E+01,      /* K =  1 */
(PID.TID 0000.0001)                 2.610000000000000E+01,      /* K =  2 */
(PID.TID 0000.0001)                 2.600000000000000E+01,      /* K =  3 */
(PID.TID 0000.0001)                 2.550000000000000E+01,      /* K =  4 */
(PID.TID 0000.0001)                 2.540000000000000E+01,      /* K =  5 */
(PID.TID 0000.0001)                 2.490000000000000E+01,      /* K =  6 */
(PID.TID 0000.0001)                 2.450000000000000E+01,      /* K =  7 */
(PID.TID 0000.0001)                 2.400000000000000E+01,      /* K =  8 */
(PID.TID 0000.0001)                 2.370000000000000E+01,      /* K =  9 */
(PID.TID 0000.0001)                 2.330000000000000E+01,      /* K = 10 */
(PID.TID 0000.0001)                 2.310000000000000E+01,      /* K = 11 */
(PID.TID 0000.0001)                 2.280000000000000E+01,      /* K = 12 */
(PID.TID 0000.0001)                 2.250000000000000E+01,      /* K = 13 */
(PID.TID 0000.0001)                 2.210000000000000E+01,      /* K = 14 */
(PID.TID 0000.0001)                 2.160000000000000E+01,      /* K = 15 */
(PID.TID 0000.0001)                 2.060000000000000E+01,      /* K = 16 */
(PID.TID 0000.0001)                 1.950000000000000E+01,      /* K = 17 */
(PID.TID 0000.0001)                 1.840000000000000E+01,      /* K = 18 */
(PID.TID 0000.0001)                 1.730000000000000E+01,      /* K = 19 */
(PID.TID 0000.0001)                 1.660000000000000E+01,      /* K = 20 */
(PID.TID 0000.0001)                 1.550000000000000E+01,      /* K = 21 */
(PID.TID 0000.0001)                 1.460000000000000E+01,      /* K = 22 */
(PID.TID 0000.0001)                 1.380000000000000E+01,      /* K = 23 */
(PID.TID 0000.0001)                 1.310000000000000E+01,      /* K = 24 */
(PID.TID 0000.0001)                 1.160000000000000E+01,      /* K = 25 */
(PID.TID 0000.0001)                 1.010000000000000E+01,      /* K = 26 */
(PID.TID 0000.0001)                 7.700000000000000E+00,      /* K = 27 */
(PID.TID 0000.0001)                 5.300000000000000E+00,      /* K = 28 */
(PID.TID 0000.0001)                 4.100000000000000E+00,      /* K = 29 */
(PID.TID 0000.0001)     2 @  3.700000000000000E+00,             /* K = 30: 31 */
(PID.TID 0000.0001)                 3.400000000000000E+00,      /* K = 32 */
(PID.TID 0000.0001)                 3.000000000000000E+00,      /* K = 33 */
(PID.TID 0000.0001)                 2.800000000000000E+00,      /* K = 34 */
(PID.TID 0000.0001)                 2.600000000000000E+00       /* K = 35 */
(PID.TID 0000.0001)     ;
(PID.TID 0000.0001) sRef =   /* Reference salinity profile ( psu ) */
(PID.TID 0000.0001)    35 @  3.500000000000000E+01              /* K =  1: 35 */
(PID.TID 0000.0001)     ;
(PID.TID 0000.0001) viscAh  =   /* Lateral eddy viscosity ( m^2/s ) */
(PID.TID 0000.0001)                 0.000000000000000E+00
(PID.TID 0000.0001)     ;
(PID.TID 0000.0001) viscAhMax = /* Maximum lateral eddy viscosity ( m^2/s ) */
(PID.TID 0000.0001)                 1.000000000000000E+21
(PID.TID 0000.0001)     ;
(PID.TID 0000.0001) viscAhGrid = /* Grid dependent lateral eddy viscosity ( non-dim. ) */
(PID.TID 0000.0001)                 0.000000000000000E+00
(PID.TID 0000.0001)     ;
(PID.TID 0000.0001) useFullLeith = /* Use Full Form of Leith Viscosity on/off flag*/
(PID.TID 0000.0001)                   F
(PID.TID 0000.0001)     ;
(PID.TID 0000.0001) useStrainTensionVisc= /* Use StrainTension Form of Viscous Operator flag*/
(PID.TID 0000.0001)                   F
(PID.TID 0000.0001)     ;
(PID.TID 0000.0001) useAreaViscLength = /* Use area for visc length instead of geom. mean*/
(PID.TID 0000.0001)                   F
(PID.TID 0000.0001)     ;
(PID.TID 0000.0001) viscC2leith = /* Leith harmonic visc. factor (on grad(vort),non-dim.) */
(PID.TID 0000.0001)                 0.000000000000000E+00
(PID.TID 0000.0001)     ;
(PID.TID 0000.0001) viscC2leithD = /* Leith harmonic viscosity factor (on grad(div),non-dim.)*/
(PID.TID 0000.0001)                 0.000000000000000E+00
(PID.TID 0000.0001)     ;
(PID.TID 0000.0001) viscC2smag = /* Smagorinsky harmonic viscosity factor (non-dim.) */
(PID.TID 0000.0001)                 0.000000000000000E+00
(PID.TID 0000.0001)     ;
(PID.TID 0000.0001) viscA4  =   /* Lateral biharmonic viscosity ( m^4/s ) */
(PID.TID 0000.0001)                 0.000000000000000E+00
(PID.TID 0000.0001)     ;
(PID.TID 0000.0001) viscA4Max = /* Maximum biharmonic viscosity ( m^2/s ) */
(PID.TID 0000.0001)                 1.000000000000000E+21
(PID.TID 0000.0001)     ;
(PID.TID 0000.0001) viscA4Grid = /* Grid dependent biharmonic viscosity ( non-dim. ) */
(PID.TID 0000.0001)                 0.000000000000000E+00
(PID.TID 0000.0001)     ;
(PID.TID 0000.0001) viscC4leith = /* Leith biharm viscosity factor (on grad(vort), non-dim.)*/
(PID.TID 0000.0001)                 0.000000000000000E+00
(PID.TID 0000.0001)     ;
(PID.TID 0000.0001) viscC4leithD = /* Leith biharm viscosity factor (on grad(div), non-dim.) */
(PID.TID 0000.0001)                 0.000000000000000E+00
(PID.TID 0000.0001)     ;
(PID.TID 0000.0001) viscC4Smag = /* Smagorinsky biharm viscosity factor (non-dim) */
(PID.TID 0000.0001)                 0.000000000000000E+00
(PID.TID 0000.0001)     ;
(PID.TID 0000.0001) no_slip_sides =  /* Viscous BCs: No-slip sides */
(PID.TID 0000.0001)                   F
(PID.TID 0000.0001)     ;
(PID.TID 0000.0001) sideDragFactor = /* side-drag scaling factor (non-dim) */
(PID.TID 0000.0001)                 2.000000000000000E+00
(PID.TID 0000.0001)     ;
(PID.TID 0000.0001) viscArNr = /* vertical profile of vertical viscosity ( m^2/s )*/
(PID.TID 0000.0001)    35 @  0.000000000000000E+00              /* K =  1: 35 */
(PID.TID 0000.0001)     ;
(PID.TID 0000.0001) no_slip_bottom =  /* Viscous BCs: No-slip bottom */
(PID.TID 0000.0001)                   T
(PID.TID 0000.0001)     ;
(PID.TID 0000.0001) bottomDragLinear = /* linear bottom-drag coefficient ( m/s ) */
(PID.TID 0000.0001)                 0.000000000000000E+00
(PID.TID 0000.0001)     ;
(PID.TID 0000.0001) bottomDragQuadratic = /* quadratic bottom-drag coefficient (-) */
(PID.TID 0000.0001)                 0.000000000000000E+00
(PID.TID 0000.0001)     ;
(PID.TID 0000.0001) diffKhT =   /* Laplacian diffusion of heat laterally ( m^2/s ) */
(PID.TID 0000.0001)                 1.000000000000000E+02
(PID.TID 0000.0001)     ;
(PID.TID 0000.0001) diffK4T =   /* Biharmonic diffusion of heat laterally ( m^4/s ) */
(PID.TID 0000.0001)                 0.000000000000000E+00
(PID.TID 0000.0001)     ;
(PID.TID 0000.0001) diffKhS =   /* Laplacian diffusion of salt laterally ( m^2/s ) */
(PID.TID 0000.0001)                 0.000000000000000E+00
(PID.TID 0000.0001)     ;
(PID.TID 0000.0001) diffK4S =   /* Biharmonic diffusion of salt laterally ( m^4/s ) */
(PID.TID 0000.0001)                 0.000000000000000E+00
(PID.TID 0000.0001)     ;
(PID.TID 0000.0001) diffKrNrT = /* vertical profile of vertical diffusion of Temp ( m^2/s )*/
(PID.TID 0000.0001)    35 @  1.000000000000000E-04              /* K =  1: 35 */
(PID.TID 0000.0001)     ;
(PID.TID 0000.0001) diffKrNrS = /* vertical profile of vertical diffusion of Salt ( m^2/s )*/
(PID.TID 0000.0001)    35 @  0.000000000000000E+00              /* K =  1: 35 */
(PID.TID 0000.0001)     ;
(PID.TID 0000.0001) diffKrBL79surf = /* Surface diffusion for Bryan and Lewis 79 ( m^2/s ) */
(PID.TID 0000.0001)                 0.000000000000000E+00
(PID.TID 0000.0001)     ;
(PID.TID 0000.0001) diffKrBL79deep = /* Deep diffusion for Bryan and Lewis 1979 ( m^2/s ) */
(PID.TID 0000.0001)                 0.000000000000000E+00
(PID.TID 0000.0001)     ;
(PID.TID 0000.0001) diffKrBL79scl = /* Depth scale for Bryan and Lewis 1979 ( m ) */
(PID.TID 0000.0001)                 2.000000000000000E+02
(PID.TID 0000.0001)     ;
(PID.TID 0000.0001) diffKrBL79Ho = /* Turning depth for Bryan and Lewis 1979 ( m ) */
(PID.TID 0000.0001)                -2.000000000000000E+03
(PID.TID 0000.0001)     ;
(PID.TID 0000.0001) ivdc_kappa = /* Implicit Vertical Diffusivity for Convection ( m^2/s) */
(PID.TID 0000.0001)                 0.000000000000000E+00
(PID.TID 0000.0001)     ;
(PID.TID 0000.0001) hMixCriteria=  /* Criteria for mixed-layer diagnostic */
(PID.TID 0000.0001)                -8.000000000000000E-01
(PID.TID 0000.0001)     ;
(PID.TID 0000.0001) dRhoSmall =  /* Parameter for mixed-layer diagnostic */
(PID.TID 0000.0001)                 1.000000000000000E-06
(PID.TID 0000.0001)     ;
(PID.TID 0000.0001) hMixSmooth=  /* Smoothing parameter for mixed-layer diagnostic */
(PID.TID 0000.0001)                 0.000000000000000E+00
(PID.TID 0000.0001)     ;
(PID.TID 0000.0001) eosType =  /* Type of Equation of State */
(PID.TID 0000.0001)               'JMD95Z'
(PID.TID 0000.0001)     ;
(PID.TID 0000.0001) celsius2K = /* 0 degree Celsius converted to Kelvin ( K ) */
(PID.TID 0000.0001)                 2.731500000000000E+02
(PID.TID 0000.0001)     ;
(PID.TID 0000.0001) rhoConst  = /* Reference density (Boussinesq)  ( kg/m^3 ) */
(PID.TID 0000.0001)                 9.998000000000000E+02
(PID.TID 0000.0001)     ;
(PID.TID 0000.0001) rhoFacC = /* normalized Reference density @ cell-Center (-) */
(PID.TID 0000.0001)    35 @  1.000000000000000E+00              /* K =  1: 35 */
(PID.TID 0000.0001)     ;
(PID.TID 0000.0001) rhoFacF = /* normalized Reference density @ W-Interface (-) */
(PID.TID 0000.0001)    36 @  1.000000000000000E+00              /* K =  1: 36 */
(PID.TID 0000.0001)     ;
(PID.TID 0000.0001) rhoConstFresh = /* Fresh-water reference density ( kg/m^3 ) */
(PID.TID 0000.0001)                 9.998000000000000E+02
(PID.TID 0000.0001)     ;
(PID.TID 0000.0001) gravity =   /* Gravitational acceleration ( m/s^2 ) */
(PID.TID 0000.0001)                 9.810000000000000E+00
(PID.TID 0000.0001)     ;
(PID.TID 0000.0001) gBaro =   /* Barotropic gravity ( m/s^2 ) */
(PID.TID 0000.0001)                 9.810000000000000E+00
(PID.TID 0000.0001)     ;
(PID.TID 0000.0001) rotationPeriod =   /* Rotation Period ( s ) */
(PID.TID 0000.0001)                 8.616400000000000E+04
(PID.TID 0000.0001)     ;
(PID.TID 0000.0001) omega =   /* Angular velocity ( rad/s ) */
(PID.TID 0000.0001)                 7.292123516990375E-05
(PID.TID 0000.0001)     ;
(PID.TID 0000.0001) f0 =   /* Reference coriolis parameter ( 1/s ) */
(PID.TID 0000.0001)                 1.000000000000000E-04
(PID.TID 0000.0001)     ;
(PID.TID 0000.0001) beta =   /* Beta ( 1/(m.s) ) */
(PID.TID 0000.0001)                 9.999999999999999E-12
(PID.TID 0000.0001)     ;
(PID.TID 0000.0001) fPrime =   /* Second coriolis parameter ( 1/s ) */
(PID.TID 0000.0001)                 0.000000000000000E+00
(PID.TID 0000.0001)     ;
(PID.TID 0000.0001) rigidLid =   /* Rigid lid on/off flag */
(PID.TID 0000.0001)                   T
(PID.TID 0000.0001)     ;
(PID.TID 0000.0001) implicitFreeSurface =   /* Implicit free surface on/off flag */
(PID.TID 0000.0001)                   F
(PID.TID 0000.0001)     ;
(PID.TID 0000.0001) freeSurfFac =   /* Implicit free surface factor */
(PID.TID 0000.0001)                 0.000000000000000E+00
(PID.TID 0000.0001)     ;
(PID.TID 0000.0001) implicSurfPress =  /* Surface Pressure implicit factor (0-1)*/
(PID.TID 0000.0001)                 1.000000000000000E+00
(PID.TID 0000.0001)     ;
(PID.TID 0000.0001) implicDiv2Dflow =  /* Barot. Flow Div. implicit factor (0-1)*/
(PID.TID 0000.0001)                 1.000000000000000E+00
(PID.TID 0000.0001)     ;
(PID.TID 0000.0001) uniformLin_PhiSurf = /* use uniform Bo_surf on/off flag*/
(PID.TID 0000.0001)                   T
(PID.TID 0000.0001)     ;
(PID.TID 0000.0001) uniformFreeSurfLev = /* free-surface level-index is uniform */
(PID.TID 0000.0001)                   T
(PID.TID 0000.0001)     ;
(PID.TID 0000.0001) hFacMin =   /* minimum partial cell factor (hFac) */
(PID.TID 0000.0001)                 1.000000000000000E+00
(PID.TID 0000.0001)     ;
(PID.TID 0000.0001) hFacMinDr = /* minimum partial cell thickness ( m) */
(PID.TID 0000.0001)                 1.000000000000000E+00
(PID.TID 0000.0001)     ;
(PID.TID 0000.0001) exactConserv =  /* Exact Volume Conservation on/off flag*/
(PID.TID 0000.0001)                   F
(PID.TID 0000.0001)     ;
(PID.TID 0000.0001) linFSConserveTr = /* Tracer correction for Lin Free Surface on/off flag*/
(PID.TID 0000.0001)                   F
(PID.TID 0000.0001)     ;
(PID.TID 0000.0001) nonlinFreeSurf = /* Non-linear Free Surf. options (-1,0,1,2,3)*/
(PID.TID 0000.0001)                       0
(PID.TID 0000.0001)      -1,0= Off ; 1,2,3= On, 2=+rescale gU,gV, 3=+update cg2d solv.
(PID.TID 0000.0001)     ;
(PID.TID 0000.0001) hFacInf =   /* lower threshold for hFac (nonlinFreeSurf only)*/
(PID.TID 0000.0001)                 2.000000000000000E-01
(PID.TID 0000.0001)     ;
(PID.TID 0000.0001) hFacSup =   /* upper threshold for hFac (nonlinFreeSurf only)*/
(PID.TID 0000.0001)                 2.000000000000000E+00
(PID.TID 0000.0001)     ;
(PID.TID 0000.0001) select_rStar = /* r* Vertical coord. options (=0 r coord.; >0 uses r*)*/
(PID.TID 0000.0001)                       0
(PID.TID 0000.0001)     ;
(PID.TID 0000.0001) useRealFreshWaterFlux = /* Real Fresh Water Flux on/off flag*/
(PID.TID 0000.0001)                   F
[...]
(PID.TID 0000.0001) %MON trcstat_ptracer07_del2       =   0.0000000000000000E+00
(PID.TID 0000.0001) %MON trcstat_ptracer08_max        =   1.7376869012708445E-02
(PID.TID 0000.0001) %MON trcstat_ptracer08_min        =   3.1246657569156487E-70
(PID.TID 0000.0001) %MON trcstat_ptracer08_mean       =   5.0446918337220751E-04
(PID.TID 0000.0001) %MON trcstat_ptracer08_sd         =   2.5976223104694812E-03
(PID.TID 0000.0001) %MON trcstat_ptracer08_del2       =   0.0000000000000000E+00
(PID.TID 0000.0001) %MON trcstat_ptracer09_max        =   2.4450171271053671E+00
(PID.TID 0000.0001) %MON trcstat_ptracer09_min        =   9.5685336333524622E-37
(PID.TID 0000.0001) %MON trcstat_ptracer09_mean       =   9.9888435290600874E-02
(PID.TID 0000.0001) %MON trcstat_ptracer09_sd         =   4.0714724601057883E-01
(PID.TID 0000.0001) %MON trcstat_ptracer09_del2       =   0.0000000000000000E+00
(PID.TID 0000.0001) %MON trcstat_ptracer10_max        =   1.5281357044408544E-01
(PID.TID 0000.0001) %MON trcstat_ptracer10_min        =   5.9803335208452889E-38
(PID.TID 0000.0001) %MON trcstat_ptracer10_mean       =   6.2430272056625546E-03
(PID.TID 0000.0001) %MON trcstat_ptracer10_sd         =   2.5446702875661177E-02
(PID.TID 0000.0001) %MON trcstat_ptracer10_del2       =   0.0000000000000000E+00
(PID.TID 0000.0001) %MON trcstat_ptracer11_max        =   1.5281356776424029E-04
(PID.TID 0000.0001) %MON trcstat_ptracer11_min        =   5.9803316383586938E-41
(PID.TID 0000.0001) %MON trcstat_ptracer11_mean       =   6.2430272074705602E-06
(PID.TID 0000.0001) %MON trcstat_ptracer11_sd         =   2.5446702811620858E-05
(PID.TID 0000.0001) %MON trcstat_ptracer11_del2       =   0.0000000000000000E+00
(PID.TID 0000.0001) %MON trcstat_ptracer12_max        =   1.4206184457708996E-02
(PID.TID 0000.0001) %MON trcstat_ptracer12_min        =   1.8698384068343394E-60
(PID.TID 0000.0001) %MON trcstat_ptracer12_mean       =   4.1257671728752669E-04
(PID.TID 0000.0001) %MON trcstat_ptracer12_sd         =   2.1154188317568171E-03
(PID.TID 0000.0001) %MON trcstat_ptracer12_del2       =   0.0000000000000000E+00
(PID.TID 0000.0001) %MON trcstat_ptracer13_max        =   4.2261324192688587E-01
(PID.TID 0000.0001) %MON trcstat_ptracer13_min        =   5.2188594828186561E-04
(PID.TID 0000.0001) %MON trcstat_ptracer13_mean       =   7.5509859534877030E-02
(PID.TID 0000.0001) %MON trcstat_ptracer13_sd         =   1.2264336637825399E-01
(PID.TID 0000.0001) %MON trcstat_ptracer13_del2       =   0.0000000000000000E+00
(PID.TID 0000.0001) %MON trcstat_ptracer14_max        =   2.6413327620430367E-02
(PID.TID 0000.0001) %MON trcstat_ptracer14_min        =   3.2617871767616601E-05
(PID.TID 0000.0001) %MON trcstat_ptracer14_mean       =   4.7193662209298144E-03
(PID.TID 0000.0001) %MON trcstat_ptracer14_sd         =   7.6652103986408742E-03
(PID.TID 0000.0001) %MON trcstat_ptracer14_del2       =   0.0000000000000000E+00
(PID.TID 0000.0001) %MON trcstat_ptracer15_max        =   1.7452688916177642E-04
(PID.TID 0000.0001) %MON trcstat_ptracer15_min        =   1.4428327888541016E-10
(PID.TID 0000.0001) %MON trcstat_ptracer15_mean       =   8.0055532032007119E-05
(PID.TID 0000.0001) %MON trcstat_ptracer15_sd         =   6.8184116204537471E-05
(PID.TID 0000.0001) %MON trcstat_ptracer15_del2       =   0.0000000000000000E+00
(PID.TID 0000.0001) %MON trcstat_ptracer16_max        =   2.6413325835379825E-05
(PID.TID 0000.0001) %MON trcstat_ptracer16_min        =   3.2617874852787551E-08
(PID.TID 0000.0001) %MON trcstat_ptracer16_mean       =   4.7193661168837268E-06
(PID.TID 0000.0001) %MON trcstat_ptracer16_sd         =   7.6652101864669153E-06
(PID.TID 0000.0001) %MON trcstat_ptracer16_del2       =   0.0000000000000000E+00
(PID.TID 0000.0001) %MON trcstat_ptracer17_max        =   0.0000000000000000E+00
(PID.TID 0000.0001) %MON trcstat_ptracer17_min        =   0.0000000000000000E+00
(PID.TID 0000.0001) %MON trcstat_ptracer17_mean       =   0.0000000000000000E+00
(PID.TID 0000.0001) %MON trcstat_ptracer17_sd         =   0.0000000000000000E+00
(PID.TID 0000.0001) %MON trcstat_ptracer17_del2       =   0.0000000000000000E+00
(PID.TID 0000.0001) %MON trcstat_ptracer18_max        =   7.0217277776688132E-04
(PID.TID 0000.0001) %MON trcstat_ptracer18_min        =   2.7843292067231751E-62
(PID.TID 0000.0001) %MON trcstat_ptracer18_mean       =   2.1185660305267703E-05
(PID.TID 0000.0001) %MON trcstat_ptracer18_sd         =   9.5216664329077593E-05
(PID.TID 0000.0001) %MON trcstat_ptracer18_del2       =   0.0000000000000000E+00
(PID.TID 0000.0001) %MON trcstat_ptracer19_max        =   6.9466880918672843E-04
(PID.TID 0000.0001) %MON trcstat_ptracer19_min        =   1.1397172869092375E-70
(PID.TID 0000.0001) %MON trcstat_ptracer19_mean       =   2.0740601854414354E-05
(PID.TID 0000.0001) %MON trcstat_ptracer19_sd         =   9.2174961383092454E-05
(PID.TID 0000.0001) %MON trcstat_ptracer19_del2       =   0.0000000000000000E+00
(PID.TID 0000.0001) %MON trcstat_ptracer20_max        =   2.8326053361996171E+00
(PID.TID 0000.0001) %MON trcstat_ptracer20_min        =   4.9976875722992012E-68
(PID.TID 0000.0001) %MON trcstat_ptracer20_mean       =   8.2230443862692792E-02
(PID.TID 0000.0001) %MON trcstat_ptracer20_sd         =   4.2347818884627264E-01
(PID.TID 0000.0001) %MON trcstat_ptracer20_del2       =   0.0000000000000000E+00
(PID.TID 0000.0001) %MON trcstat_ptracer21_max        =   2.8326067130371730E+00
(PID.TID 0000.0001) %MON trcstat_ptracer21_min        =   4.9976875744672108E-68
(PID.TID 0000.0001) %MON trcstat_ptracer21_mean       =   8.2230472507586236E-02
(PID.TID 0000.0001) %MON trcstat_ptracer21_sd         =   4.2347836038273928E-01
(PID.TID 0000.0001) %MON trcstat_ptracer21_del2       =   0.0000000000000000E+00
(PID.TID 0000.0001) // =======================================================
(PID.TID 0000.0001) // End MONITOR ptracers field statistics
(PID.TID 0000.0001) // =======================================================
 Computing Diagnostic #    156  TRAC01       Counter:       1   Parms: SMR     MR      
 Computing Diagnostic #    169  TRAC02       Counter:       1   Parms: SMR     MR      
 Computing Diagnostic #    182  TRAC03       Counter:       1   Parms: SMR     MR      
 Computing Diagnostic #    195  TRAC04       Counter:       1   Parms: SMR     MR      
 Computing Diagnostic #    208  TRAC05       Counter:       1   Parms: SMR     MR      
 Computing Diagnostic #    221  TRAC06       Counter:       1   Parms: SMR     MR      
 Computing Diagnostic #    234  TRAC07       Counter:       1   Parms: SMR     MR      
 Computing Diagnostic #    247  TRAC08       Counter:       1   Parms: SMR     MR      
 Computing Diagnostic #    260  TRAC09       Counter:       1   Parms: SMR     MR      
 Computing Diagnostic #    273  TRAC10       Counter:       1   Parms: SMR     MR      
 Computing Diagnostic #    286  TRAC11       Counter:       1   Parms: SMR     MR      
 Computing Diagnostic #    299  TRAC12       Counter:       1   Parms: SMR     MR      
 Computing Diagnostic #    312  TRAC13       Counter:       1   Parms: SMR     MR      
 Computing Diagnostic #    325  TRAC14       Counter:       1   Parms: SMR     MR      
 Computing Diagnostic #    338  TRAC15       Counter:       1   Parms: SMR     MR      
 Computing Diagnostic #    351  TRAC16       Counter:       1   Parms: SMR     MR      
 Computing Diagnostic #    364  TRAC17       Counter:       1   Parms: SMR     MR      
 Computing Diagnostic #    377  TRAC18       Counter:       1   Parms: SMR     MR      
 Computing Diagnostic #    390  TRAC19       Counter:       1   Parms: SMR     MR      
 Computing Diagnostic #    403  TRAC20       Counter:       1   Parms: SMR     MR      
 Computing Diagnostic #    416  TRAC21       Counter:       1   Parms: SMR     MR      
 Computing Diagnostic #    434  PAR01        Counter:       2   Parms: SM P    MR      
 Computing Diagnostic #    441  DIC_c01      Counter:       1   Parms: SM P    MR      
 Computing Diagnostic #    452  DIC_c02      Counter:       1   Parms: SM P    MR      
 Computing Diagnostic #    442  c01_DOC      Counter:       1   Parms: SM P    MR      
 Computing Diagnostic #    453  c02_DOC      Counter:       1   Parms: SM P    MR      
 Computing Diagnostic #    443  c01_POC      Counter:       1   Parms: SM P    MR      
 Computing Diagnostic #    454  c02_POC      Counter:       1   Parms: SM P    MR      
 Computing Diagnostic #    433  PARF         Counter:       1   Parms: SM P    MR      
 Computing Diagnostic #    430  atten        Counter:       1   Parms: SM P    MR      
 Computing Diagnostic #    432  surfPAR      Counter:       1   Parms: SM P    MR      
 Computing Diagnostic #    431  exfPAR       Counter:       1   Parms: SM P    MR      
 Computing Diagnostic #    435  limn01       Counter:       1   Parms: SM P    MR      
 Computing Diagnostic #    436  limp01       Counter:       1   Parms: SM P    MR      
 Computing Diagnostic #    437  limsi01      Counter:       1   Parms: SM P    MR      
 Computing Diagnostic #    438  limfe01      Counter:       1   Parms: SM P    MR      
 Computing Diagnostic #    439  limI01       Counter:       1   Parms: SM P    MR      
 Computing Diagnostic #    440  limT01       Counter:       1   Parms: SM P    MR      
 Computing Diagnostic #    444  c01_c        Counter:       1   Parms: SM P    MR      
 Computing Diagnostic #    455  c02_c        Counter:       1   Parms: SM P    MR      
 Computing Diagnostic #    467  c_c03        Counter:       1   Parms: SM P    MR      
 Computing Diagnostic #    478  c_c04        Counter:       1   Parms: SM P    MR      
 Computing Diagnostic #    479  c_DOC        Counter:       1   Parms: SM P    MR      
 Computing Diagnostic #    480  c_POC        Counter:       1   Parms: SM P    MR      
 Computing Diagnostic #    481  c_PIC        Counter:       1   Parms: SM P    MR      
 Computing Diagnostic #    482  n_DON        Counter:       1   Parms: SM P    MR      
 Computing Diagnostic #    483  n_PON        Counter:       1   Parms: SM P    MR      
 Computing Diagnostic #    484  p_DOP        Counter:       1   Parms: SM P    MR      
 Computing Diagnostic #    485  p_POP        Counter:       1   Parms: SM P    MR      
(PID.TID 0000.0001) %CHECKPOINT         4 ckptA
(PID.TID 0000.0001)   Seconds in section "ALL                    [THE_MODEL_MAIN]":
(PID.TID 0000.0001)           User time:   1.0500000000000000
(PID.TID 0000.0001)         System time:   7.0000000000000007E-002
(PID.TID 0000.0001)     Wall clock time:   22.889166831970215
(PID.TID 0000.0001)          No. starts:           1
(PID.TID 0000.0001)           No. stops:           1
(PID.TID 0000.0001)   Seconds in section "INITIALISE_FIXED       [THE_MODEL_MAIN]":
(PID.TID 0000.0001)           User time:  0.38000000000000000
(PID.TID 0000.0001)         System time:   2.0000000000000000E-002
(PID.TID 0000.0001)     Wall clock time:   1.8783447742462158
(PID.TID 0000.0001)          No. starts:           1
(PID.TID 0000.0001)           No. stops:           1
(PID.TID 0000.0001)   Seconds in section "THE_MAIN_LOOP          [THE_MODEL_MAIN]":
(PID.TID 0000.0001)           User time:  0.67000000000000004
(PID.TID 0000.0001)         System time:   5.0000000000000003E-002
(PID.TID 0000.0001)     Wall clock time:   21.010241985321045
(PID.TID 0000.0001)          No. starts:           1
(PID.TID 0000.0001)           No. stops:           1
(PID.TID 0000.0001)   Seconds in section "INITIALISE_VARIA    [THE_MAIN_LOOP]":
(PID.TID 0000.0001)           User time:   3.0000000000000027E-002
(PID.TID 0000.0001)         System time:   9.9999999999999985E-003
(PID.TID 0000.0001)     Wall clock time:   1.5446081161499023
(PID.TID 0000.0001)          No. starts:           1
(PID.TID 0000.0001)           No. stops:           1
(PID.TID 0000.0001)   Seconds in section "MAIN LOOP           [THE_MAIN_LOOP]":
(PID.TID 0000.0001)           User time:  0.64000000000000001
(PID.TID 0000.0001)         System time:   4.0000000000000008E-002
(PID.TID 0000.0001)     Wall clock time:   19.465582132339478
(PID.TID 0000.0001)          No. starts:           1
(PID.TID 0000.0001)           No. stops:           1
(PID.TID 0000.0001)   Seconds in section "FORWARD_STEP        [THE_MAIN_LOOP]":
(PID.TID 0000.0001)           User time:  0.64000000000000001
(PID.TID 0000.0001)         System time:   4.0000000000000008E-002
(PID.TID 0000.0001)     Wall clock time:   19.465507030487061
(PID.TID 0000.0001)          No. starts:           4
(PID.TID 0000.0001)           No. stops:           4
(PID.TID 0000.0001)   Seconds in section "DO_STATEVARS_DIAGS  [FORWARD_STEP]":
(PID.TID 0000.0001)           User time:   0.0000000000000000
(PID.TID 0000.0001)         System time:   0.0000000000000000
(PID.TID 0000.0001)     Wall clock time:   1.8284320831298828E-003
(PID.TID 0000.0001)          No. starts:           8
(PID.TID 0000.0001)           No. stops:           8
(PID.TID 0000.0001)   Seconds in section "LOAD_FIELDS_DRIVER  [FORWARD_STEP]":
(PID.TID 0000.0001)           User time:   1.0000000000000009E-002
(PID.TID 0000.0001)         System time:   0.0000000000000000
(PID.TID 0000.0001)     Wall clock time:   5.3682327270507813E-003
(PID.TID 0000.0001)          No. starts:           4
(PID.TID 0000.0001)           No. stops:           4
(PID.TID 0000.0001)   Seconds in section "EXF_GETFORCING     [LOAD_FLDS_DRIVER]":
(PID.TID 0000.0001)           User time:   1.0000000000000009E-002
(PID.TID 0000.0001)         System time:   0.0000000000000000
(PID.TID 0000.0001)     Wall clock time:   3.4661293029785156E-003
(PID.TID 0000.0001)          No. starts:           4
(PID.TID 0000.0001)           No. stops:           4
(PID.TID 0000.0001)   Seconds in section "EXTERNAL_FLDS_LOAD [LOAD_FLDS_DRIVER]":
(PID.TID 0000.0001)           User time:   0.0000000000000000
(PID.TID 0000.0001)         System time:   0.0000000000000000
(PID.TID 0000.0001)     Wall clock time:   5.8388710021972656E-004
(PID.TID 0000.0001)          No. starts:           4
(PID.TID 0000.0001)           No. stops:           4
(PID.TID 0000.0001)   Seconds in section "DO_ATMOSPHERIC_PHYS [FORWARD_STEP]":
(PID.TID 0000.0001)           User time:   0.0000000000000000
(PID.TID 0000.0001)         System time:   0.0000000000000000
(PID.TID 0000.0001)     Wall clock time:   6.1750411987304688E-005
(PID.TID 0000.0001)          No. starts:           4
(PID.TID 0000.0001)           No. stops:           4
(PID.TID 0000.0001)   Seconds in section "DO_OCEANIC_PHYS     [FORWARD_STEP]":
(PID.TID 0000.0001)           User time:   0.0000000000000000
(PID.TID 0000.0001)         System time:   0.0000000000000000
(PID.TID 0000.0001)     Wall clock time:   1.1214256286621094E-002
(PID.TID 0000.0001)          No. starts:           4
(PID.TID 0000.0001)           No. stops:           4
(PID.TID 0000.0001)   Seconds in section "KPP_CALC [DO_OCEANIC_PHYS]":
(PID.TID 0000.0001)           User time:   0.0000000000000000
(PID.TID 0000.0001)         System time:   0.0000000000000000
(PID.TID 0000.0001)     Wall clock time:   9.7565650939941406E-003
(PID.TID 0000.0001)          No. starts:           4
(PID.TID 0000.0001)           No. stops:           4
(PID.TID 0000.0001)   Seconds in section "GCHEM_CALC_TENDENCY [FORWARD_STEP]":
(PID.TID 0000.0001)           User time:   0.0000000000000000
(PID.TID 0000.0001)         System time:   0.0000000000000000
(PID.TID 0000.0001)     Wall clock time:   4.9114227294921875E-005
(PID.TID 0000.0001)          No. starts:           4
(PID.TID 0000.0001)           No. stops:           4
(PID.TID 0000.0001)   Seconds in section "THERMODYNAMICS      [FORWARD_STEP]":
(PID.TID 0000.0001)           User time:   6.9999999999999951E-002
(PID.TID 0000.0001)         System time:   0.0000000000000000
(PID.TID 0000.0001)     Wall clock time:   5.5617809295654297E-002
(PID.TID 0000.0001)          No. starts:           4
(PID.TID 0000.0001)           No. stops:           4
(PID.TID 0000.0001)   Seconds in section "TRC_CORRECTION_STEP [FORWARD_STEP]":
(PID.TID 0000.0001)           User time:   0.0000000000000000
(PID.TID 0000.0001)         System time:   0.0000000000000000
(PID.TID 0000.0001)     Wall clock time:   7.9703330993652344E-004
(PID.TID 0000.0001)          No. starts:           4
(PID.TID 0000.0001)           No. stops:           4
(PID.TID 0000.0001)   Seconds in section "GCHEM_FORCING_SEP  [FORWARD_STEP]":
(PID.TID 0000.0001)           User time:   0.0000000000000000
(PID.TID 0000.0001)         System time:   0.0000000000000000
(PID.TID 0000.0001)     Wall clock time:   7.6448917388916016E-003
(PID.TID 0000.0001)          No. starts:           4
(PID.TID 0000.0001)           No. stops:           4
(PID.TID 0000.0001)   Seconds in section "BLOCKING_EXCHANGES  [FORWARD_STEP]":
(PID.TID 0000.0001)           User time:   0.0000000000000000
(PID.TID 0000.0001)         System time:   0.0000000000000000
(PID.TID 0000.0001)     Wall clock time:   3.2217502593994141E-003
(PID.TID 0000.0001)          No. starts:           4
(PID.TID 0000.0001)           No. stops:           4
(PID.TID 0000.0001)   Seconds in section "DO_STATEVARS_TAVE   [FORWARD_STEP]":
(PID.TID 0000.0001)           User time:   0.0000000000000000
(PID.TID 0000.0001)         System time:   0.0000000000000000
(PID.TID 0000.0001)     Wall clock time:   4.3702125549316406E-004
(PID.TID 0000.0001)          No. starts:           4
(PID.TID 0000.0001)           No. stops:           4
(PID.TID 0000.0001)   Seconds in section "MONITOR             [FORWARD_STEP]":
(PID.TID 0000.0001)           User time:   1.0000000000000009E-002
(PID.TID 0000.0001)         System time:   0.0000000000000000
(PID.TID 0000.0001)     Wall clock time:   3.9463043212890625E-003
(PID.TID 0000.0001)          No. starts:           4
(PID.TID 0000.0001)           No. stops:           4
(PID.TID 0000.0001)   Seconds in section "DO_THE_MODEL_IO     [FORWARD_STEP]":
(PID.TID 0000.0001)           User time:  0.54999999999999993
(PID.TID 0000.0001)         System time:   4.0000000000000008E-002
(PID.TID 0000.0001)     Wall clock time:   19.372458696365356
(PID.TID 0000.0001)          No. starts:           4
(PID.TID 0000.0001)           No. stops:           4
(PID.TID 0000.0001)   Seconds in section "DO_WRITE_PICKUP     [FORWARD_STEP]":
(PID.TID 0000.0001)           User time:   0.0000000000000000
(PID.TID 0000.0001)         System time:   0.0000000000000000
(PID.TID 0000.0001)     Wall clock time:   2.0771026611328125E-003
(PID.TID 0000.0001)          No. starts:           4
(PID.TID 0000.0001)           No. stops:           4
(PID.TID 0000.0001) // ======================================================
(PID.TID 0000.0001) // Tile <-> Tile communication statistics
(PID.TID 0000.0001) // ======================================================
(PID.TID 0000.0001) // o Tile number: 000001
(PID.TID 0000.0001) //         No. X exchanges =              0
(PID.TID 0000.0001) //            Max. X spins =              0
(PID.TID 0000.0001) //            Min. X spins =     1000000000
(PID.TID 0000.0001) //          Total. X spins =              0
(PID.TID 0000.0001) //            Avg. X spins =       0.00E+00
(PID.TID 0000.0001) //         No. Y exchanges =              0
(PID.TID 0000.0001) //            Max. Y spins =              0
(PID.TID 0000.0001) //            Min. Y spins =     1000000000
(PID.TID 0000.0001) //          Total. Y spins =              0
(PID.TID 0000.0001) //            Avg. Y spins =       0.00E+00
(PID.TID 0000.0001) // o Thread number: 000001
(PID.TID 0000.0001) //            No. barriers =           6274
(PID.TID 0000.0001) //      Max. barrier spins =              1
(PID.TID 0000.0001) //      Min. barrier spins =              1
(PID.TID 0000.0001) //     Total barrier spins =           6274
(PID.TID 0000.0001) //      Avg. barrier spins =       1.00E+00
PROGRAM MAIN: Execution ended Normally
