(PID.TID 0000.0001) 
(PID.TID 0000.0001) // ======================================================
(PID.TID 0000.0001) //                      MITgcm UV
(PID.TID 0000.0001) //                      =========
(PID.TID 0000.0001) // ======================================================
(PID.TID 0000.0001) // execution environment starting up...
(PID.TID 0000.0001) 
(PID.TID 0000.0001) // Build user:        jahn
(PID.TID 0000.0001) // Build host:        node200
(PID.TID 0000.0001) // Build date:        Mon Jun 30 12:14:20 EDT 2014
(PID.TID 0000.0001) 
(PID.TID 0000.0001) // =======================================================
(PID.TID 0000.0001) // Execution Environment parameter file "eedata"
(PID.TID 0000.0001) // =======================================================
(PID.TID 0000.0001) ># Example "eedata" file
(PID.TID 0000.0001) ># Lines beginning "#" are comments
(PID.TID 0000.0001) ># nTx - No. threads per process in X
(PID.TID 0000.0001) ># nTy - No. threads per process in Y
(PID.TID 0000.0001) > &EEPARMS
(PID.TID 0000.0001) > nTx=1,nTy=1
(PID.TID 0000.0001) > /
(PID.TID 0000.0001) ># Note: Some systems use & as the
(PID.TID 0000.0001) ># namelist terminator. Other systems
(PID.TID 0000.0001) ># use a / character (as shown here).
(PID.TID 0000.0001) 
(PID.TID 0000.0001) // =======================================================
(PID.TID 0000.0001) // Computational Grid Specification ( see files "SIZE.h" )
(PID.TID 0000.0001) //                                  ( and "eedata"       )
(PID.TID 0000.0001) // =======================================================
(PID.TID 0000.0001)      nPx =    1 ; /* No. processes in X */
(PID.TID 0000.0001)      nPy =    1 ; /* No. processes in Y */
(PID.TID 0000.0001)      nSx =    1 ; /* No. tiles in X per process */
(PID.TID 0000.0001)      nSy =    1 ; /* No. tiles in Y per process */
(PID.TID 0000.0001)      sNx =    1 ; /* Tile size in X */
(PID.TID 0000.0001)      sNy =    1 ; /* Tile size in Y */
(PID.TID 0000.0001)      OLx =    2 ; /* Tile overlap distance in X */
(PID.TID 0000.0001)      OLy =    2 ; /* Tile overlap distance in Y */
(PID.TID 0000.0001)      nTx =    1 ; /* No. threads in X per process */
(PID.TID 0000.0001)      nTy =    1 ; /* No. threads in Y per process */
(PID.TID 0000.0001)       Nr =   35 ; /* No. levels in the vertical   */
(PID.TID 0000.0001)       Nx =    1 ; /* Total domain size in X ( = nPx*nSx*sNx ) */
(PID.TID 0000.0001)       Ny =    1 ; /* Total domain size in Y ( = nPy*nSy*sNy ) */
(PID.TID 0000.0001)   nTiles =    1 ; /* Total no. tiles per process ( = nSx*nSy ) */
(PID.TID 0000.0001)   nProcs =    1 ; /* Total no. processes ( = nPx*nPy ) */
(PID.TID 0000.0001) nThreads =    1 ; /* Total no. threads per process ( = nTx*nTy ) */
(PID.TID 0000.0001) usingMPI =    F ; /* Flag used to control whether MPI is in use */
(PID.TID 0000.0001)                   /*  note: To execute a program with MPI calls */
(PID.TID 0000.0001)                   /*  it must be launched appropriately e.g     */
(PID.TID 0000.0001)                   /*  "mpirun -np 64 ......"                    */
(PID.TID 0000.0001) useCoupler=    F ;/* Flag used to control communications with   */
(PID.TID 0000.0001)                   /*  other model components, through a coupler */
(PID.TID 0000.0001) debugMode =    F ; /* print debug msg. (sequence of S/R calls)  */
(PID.TID 0000.0001) printMapIncludesZeros=    F ; /* print zeros in Std.Output maps */
(PID.TID 0000.0001) maxLengthPrt1D=   65 /* maxLength of 1D array printed to StdOut */
(PID.TID 0000.0001) 
(PID.TID 0000.0001) // ======================================================
(PID.TID 0000.0001) // Mapping of tiles to threads
(PID.TID 0000.0001) // ======================================================
(PID.TID 0000.0001) // -o- Thread   1, tiles (   1:   1,   1:   1)
(PID.TID 0000.0001) 
(PID.TID 0000.0001) // ======================================================
(PID.TID 0000.0001) // Tile <-> Tile connectvity table
(PID.TID 0000.0001) // ======================================================
(PID.TID 0000.0001) // Tile number: 000001 (process no. = 000000)
(PID.TID 0000.0001) //        WEST: Tile = 000001, Process = 000000, Comm = put
(PID.TID 0000.0001) //                bi = 000001, bj = 000001
(PID.TID 0000.0001) //        EAST: Tile = 000001, Process = 000000, Comm = put
(PID.TID 0000.0001) //                bi = 000001, bj = 000001
(PID.TID 0000.0001) //       SOUTH: Tile = 000001, Process = 000000, Comm = put
(PID.TID 0000.0001) //                bi = 000001, bj = 000001
(PID.TID 0000.0001) //       NORTH: Tile = 000001, Process = 000000, Comm = put
(PID.TID 0000.0001) //                bi = 000001, bj = 000001
(PID.TID 0000.0001) 
(PID.TID 0000.0001)  INI_PARMS: opening model parameter file "data"
(PID.TID 0000.0001)  OPEN_COPY_DATA_FILE: opening file data
(PID.TID 0000.0001) // =======================================================
(PID.TID 0000.0001) // Parameter file "data"
(PID.TID 0000.0001) // =======================================================
(PID.TID 0000.0001) >#
(PID.TID 0000.0001) ># ******************************
(PID.TID 0000.0001) ># Model parameters
(PID.TID 0000.0001) ># Continuous equation parameters
(PID.TID 0000.0001) ># ******************************
(PID.TID 0000.0001) >&PARM01
(PID.TID 0000.0001) >tRef= 26.5, 26.1, 26., 25.5, 25.4, 24.9, 24.5, 24.0, 23.7,
(PID.TID 0000.0001) >      23.3, 23.1, 22.8, 22.5, 22.1, 21.6, 20.6, 19.5, 18.4,
(PID.TID 0000.0001) >      17.3, 16.6, 15.5, 14.6, 13.8, 13.1, 11.6, 10.1, 7.7,
(PID.TID 0000.0001) >      5.3, 4.1, 3.7, 3.7, 3.4, 3.0, 2.8, 2.6,
(PID.TID 0000.0001) >sRef= 35*35.00,
(PID.TID 0000.0001) >no_slip_sides=.false.,
(PID.TID 0000.0001) >no_slip_bottom=.TRUE.,
(PID.TID 0000.0001) >viscAz=0.e0,
(PID.TID 0000.0001) >viscAh=0.e0,
(PID.TID 0000.0001) >diffKhT=1.E2,
(PID.TID 0000.0001) >diffKzT=1.E-4,
(PID.TID 0000.0001) >diffKhS=0.D0,
(PID.TID 0000.0001) >diffKzS=0.D0,
(PID.TID 0000.0001) >beta=1.E-11,
(PID.TID 0000.0001) >tAlpha=2.E-4,
(PID.TID 0000.0001) >sBeta =7.4E-4,
(PID.TID 0000.0001) >gravity=9.81,
(PID.TID 0000.0001) >gBaro=9.81,
(PID.TID 0000.0001) >rigidLid=.TRUE.,
(PID.TID 0000.0001) >implicitFreeSurface=.false.,
(PID.TID 0000.0001) >eosType='JMD95Z',
(PID.TID 0000.0001) >saltStepping=.FALSE.,
(PID.TID 0000.0001) >tempStepping=.TRUE.,
(PID.TID 0000.0001) >tempAdvection=.TRUE.,
(PID.TID 0000.0001) >momStepping=.FALSE.,
(PID.TID 0000.0001) >implicitDiffusion=.true.,
(PID.TID 0000.0001) >implicitViscosity=.false.,
(PID.TID 0000.0001) >allowFreezing=.false.,
(PID.TID 0000.0001) >useSingleCpuIO=.TRUE.,
(PID.TID 0000.0001) >useCDscheme=.FALSE.,
(PID.TID 0000.0001) >tempAdvScheme = 3,
(PID.TID 0000.0001) >saltAdvScheme = 3,
(PID.TID 0000.0001) >writeBinaryPrec= 64,
(PID.TID 0000.0001) >/
(PID.TID 0000.0001) >
(PID.TID 0000.0001) ># **************************
(PID.TID 0000.0001) ># Elliptic solver parameters
(PID.TID 0000.0001) ># **************************
(PID.TID 0000.0001) >&PARM02
(PID.TID 0000.0001) >cg2dMaxIters=300,
(PID.TID 0000.0001) >cg2dTargetResidual=1.E-7,
(PID.TID 0000.0001) >/
(PID.TID 0000.0001) >
(PID.TID 0000.0001) ># ************************
(PID.TID 0000.0001) ># Time stepping parameters
(PID.TID 0000.0001) ># ************************
(PID.TID 0000.0001) >&PARM03
(PID.TID 0000.0001) > nIter0=0,
(PID.TID 0000.0001) >#nTimeSteps=86400,
(PID.TID 0000.0001) > nTimeSteps=4,
(PID.TID 0000.0001) > deltaTmom= 3600.,
(PID.TID 0000.0001) > deltaTtracer= 3600.,
(PID.TID 0000.0001) > deltaTClock = 3600.,
(PID.TID 0000.0001) > cAdjFreq    = -1.,
(PID.TID 0000.0001) > abEps=0.1,
(PID.TID 0000.0001) > pChkptFreq  = 31104000.0,
(PID.TID 0000.0001) > chkptFreq   = 31104000.0,
(PID.TID 0000.0001) > dumpFreq = 3600.,
(PID.TID 0000.0001) > dumpInitAndLast = .TRUE.,
(PID.TID 0000.0001) > taveFreq    = 2592000.,
(PID.TID 0000.0001) >#monitorFreq = 2592000.,
(PID.TID 0000.0001) > monitorFreq = 1.,
(PID.TID 0000.0001) > tauThetaClimRelax=259200.,
(PID.TID 0000.0001) > tauSaltClimRelax=0.,
(PID.TID 0000.0001) > periodicExternalForcing=.TRUE.,
(PID.TID 0000.0001) > externForcingPeriod=2592000.,
(PID.TID 0000.0001) > externForcingCycle=31104000.,
(PID.TID 0000.0001) >/
(PID.TID 0000.0001) >
(PID.TID 0000.0001) ># *******************
(PID.TID 0000.0001) ># Gridding parameters
(PID.TID 0000.0001) ># *******************
(PID.TID 0000.0001) >&PARM04
(PID.TID 0000.0001) >usingCartesianGrid=.FALSE.,
(PID.TID 0000.0001) >usingSphericalPolarGrid=.TRUE.,
(PID.TID 0000.0001) >delX=1*1.E0,
(PID.TID 0000.0001) >delY=1*1.E0,
(PID.TID 0000.0001) >delZ=14*10, 5*15, 4*20, 2*50, 100, 2*150, 200, 300, 3*400, 2*500,
(PID.TID 0000.0001) >xgOrigin=335,
(PID.TID 0000.0001) >ygOrigin=-18.,
(PID.TID 0000.0001) >/
(PID.TID 0000.0001) >
(PID.TID 0000.0001) ># **********
(PID.TID 0000.0001) ># Data Files
(PID.TID 0000.0001) ># **********
(PID.TID 0000.0001) >&PARM05
(PID.TID 0000.0001) >bathyFile=       '../input/input/bathyneg.bin',
(PID.TID 0000.0001) >hydrogThetaFile= '../input/input/loc1_temp_janprof.bin',
(PID.TID 0000.0001) >hydrogSaltFile=  '../input/input/salt_uniform.bin',
(PID.TID 0000.0001) >zonalWindFile=   '',
(PID.TID 0000.0001) >meridWindFile=   '',
(PID.TID 0000.0001) >thetaClimFile=   '../input/input/loc1_temp_monsurf.bin',
(PID.TID 0000.0001) >saltClimFile=    '',
(PID.TID 0000.0001) >surfQFile=       '',
(PID.TID 0000.0001) >EmPmRFile=       '',
(PID.TID 0000.0001) >/
(PID.TID 0000.0001) 
(PID.TID 0000.0001)  INI_PARMS ; starts to read PARM01
(PID.TID 0000.0001)  INI_PARMS ; read PARM01 : OK
(PID.TID 0000.0001)  INI_PARMS ; starts to read PARM02
(PID.TID 0000.0001)  INI_PARMS ; read PARM02 : OK
(PID.TID 0000.0001)  INI_PARMS ; starts to read PARM03
(PID.TID 0000.0001)  INI_PARMS ; read PARM03 : OK
(PID.TID 0000.0001)  INI_PARMS ; starts to read PARM04
(PID.TID 0000.0001)  INI_PARMS ; read PARM04 : OK
(PID.TID 0000.0001)  INI_PARMS ; starts to read PARM05
(PID.TID 0000.0001)  INI_PARMS ; read PARM05 : OK
(PID.TID 0000.0001)  INI_PARMS: finished reading file "data"
(PID.TID 0000.0001)  PACKAGES_BOOT: opening data.pkg
(PID.TID 0000.0001)  OPEN_COPY_DATA_FILE: opening file data.pkg
(PID.TID 0000.0001) // =======================================================
(PID.TID 0000.0001) // Parameter file "data.pkg"
(PID.TID 0000.0001) // =======================================================
(PID.TID 0000.0001) ># Packages
(PID.TID 0000.0001) > &PACKAGES
(PID.TID 0000.0001) > usePTRACERS=.TRUE.
(PID.TID 0000.0001) > useGCHEM=.TRUE.,
(PID.TID 0000.0001) > useKPP=.FALSE.,
(PID.TID 0000.0001) > useMNC=.TRUE.,
(PID.TID 0000.0001) > useEXF=.TRUE,
(PID.TID 0000.0001) > useDIAGNOSTICS=.TRUE,
(PID.TID 0000.0001) > /
(PID.TID 0000.0001) 
(PID.TID 0000.0001)  PACKAGES_BOOT: finished reading data.pkg
(PID.TID 0000.0001)  PACKAGES_BOOT: On/Off package Summary
 --------  pkgs with a standard "usePKG" On/Off switch in "data.pkg":  --------
 pkg/kpp                  compiled but not used ( useKPP                   = F )
 pkg/cal                  compiled   and   used ( useCAL                   = T )
 pkg/exf                  compiled   and   used ( useEXF                   = T )
 pkg/sbo                  compiled but not used ( useSBO                   = F )
 pkg/ptracers             compiled   and   used ( usePTRACERS              = T )
 pkg/gchem                compiled   and   used ( useGCHEM                 = T )
 pkg/diagnostics          compiled   and   used ( useDiagnostics           = T )
 pkg/mnc                  compiled   and   used ( useMNC                   = T )
 -------- pkgs without standard "usePKG" On/Off switch in "data.pkg":  --------
 pkg/generic_advdiff      compiled   and   used ( useGAD                   = T )
 pkg/mom_common           compiled but not used ( momStepping              = F )
 pkg/mom_vecinv           compiled but not used ( +vectorInvariantMomentum = F )
 pkg/mom_fluxform         compiled but not used ( & not vectorInvariantMom = F )
 pkg/monitor              compiled   and   used ( monitorFreq > 0.         = T )
 pkg/timeave              compiled   and   used ( taveFreq > 0.            = T )
 pkg/debug                compiled but not used ( debugMode                = F )
 pkg/rw                   compiled   and   used
 pkg/mdsio                compiled   and   used
(PID.TID 0000.0001)  PACKAGES_BOOT: End of package Summary
(PID.TID 0000.0001) 
(PID.TID 0000.0001)  MNC_READPARMS: opening file 'data.mnc'
(PID.TID 0000.0001)  OPEN_COPY_DATA_FILE: opening file data.mnc
(PID.TID 0000.0001) // =======================================================
(PID.TID 0000.0001) // Parameter file "data.mnc"
(PID.TID 0000.0001) // =======================================================
(PID.TID 0000.0001) ># Example "data.mnc" file
(PID.TID 0000.0001) ># Lines beginning "#" are comments
(PID.TID 0000.0001) > &MNC_01
(PID.TID 0000.0001) ># mnc_echo_gvtypes=.FALSE.,
(PID.TID 0000.0001) ># mnc_use_indir=.FALSE.,
(PID.TID 0000.0001) > mnc_use_outdir=.TRUE.,
(PID.TID 0000.0001) > mnc_outdir_str='mnc_',
(PID.TID 0000.0001) > mnc_outdir_date=T,
(PID.TID 0000.0001) > monitor_mnc=.FALSE.,
(PID.TID 0000.0001) > snapshot_mnc=.TRUE.,
(PID.TID 0000.0001) > timeave_mnc=.TRUE.,
(PID.TID 0000.0001) > pickup_read_mnc=.FALSE.,
(PID.TID 0000.0001) > pickup_write_mnc=.FALSE.,
(PID.TID 0000.0001) > /
(PID.TID 0000.0001) ># Note: Some systems use & as the
(PID.TID 0000.0001) ># namelist terminator. Other systems
(PID.TID 0000.0001) ># use a / character.
(PID.TID 0000.0001) 
(PID.TID 0000.0001)  MNC_READPARMS: finished reading data.mnc
(PID.TID 0000.0001) CAL_READPARMS: opening data.cal
(PID.TID 0000.0001)  OPEN_COPY_DATA_FILE: opening file data.cal
(PID.TID 0000.0001) // =======================================================
(PID.TID 0000.0001) // Parameter file "data.cal"
(PID.TID 0000.0001) // =======================================================
(PID.TID 0000.0001) >#
(PID.TID 0000.0001) ># *******************
(PID.TID 0000.0001) ># Calendar Parameters
(PID.TID 0000.0001) ># *******************
(PID.TID 0000.0001) > &CAL_NML
(PID.TID 0000.0001) > TheCalendar='model',
(PID.TID 0000.0001) > startDate_1=19920101,
(PID.TID 0000.0001) > startDate_2=000000,
(PID.TID 0000.0001) > calendarDumps = .TRUE.
(PID.TID 0000.0001) > /
(PID.TID 0000.0001) 
(PID.TID 0000.0001) CAL_READPARMS: finished reading data.cal
(PID.TID 0000.0001) EXF_READPARMS: opening data.exf
(PID.TID 0000.0001)  OPEN_COPY_DATA_FILE: opening file data.exf
(PID.TID 0000.0001) // =======================================================
(PID.TID 0000.0001) // Parameter file "data.exf"
(PID.TID 0000.0001) // =======================================================
(PID.TID 0000.0001) ># *********************
(PID.TID 0000.0001) ># External Forcing Data
(PID.TID 0000.0001) ># *********************
(PID.TID 0000.0001) >#
(PID.TID 0000.0001) > &EXF_NML_01
(PID.TID 0000.0001) > exf_albedo        = 0.15,
(PID.TID 0000.0001) > exf_iprec         = 32,
(PID.TID 0000.0001) > exf_yftype        = 'RL',
(PID.TID 0000.0001) > useExfYearlyFields= .TRUE.,
(PID.TID 0000.0001) > twoDigitYear      = .TRUE.,
(PID.TID 0000.0001) > useExfCheckRange  = .FALSE.,
(PID.TID 0000.0001) > /
(PID.TID 0000.0001) >#
(PID.TID 0000.0001) > &EXF_NML_02
(PID.TID 0000.0001) > /
(PID.TID 0000.0001) >#
(PID.TID 0000.0001) > &EXF_NML_03
(PID.TID 0000.0001) > /
(PID.TID 0000.0001) >#
(PID.TID 0000.0001) > &EXF_NML_04
(PID.TID 0000.0001) > /
(PID.TID 0000.0001) >#
(PID.TID 0000.0001) > &EXF_NML_OBCS
(PID.TID 0000.0001) > /
(PID.TID 0000.0001) 
(PID.TID 0000.0001) EXF_READPARMS: reading EXF_NML_01
(PID.TID 0000.0001) EXF_READPARMS: reading EXF_NML_02
(PID.TID 0000.0001) EXF_READPARMS: reading EXF_NML_03
(PID.TID 0000.0001) EXF_READPARMS: finished reading data.exf
(PID.TID 0000.0001)  PTRACERS_READPARMS: opening data.ptracers
(PID.TID 0000.0001)  OPEN_COPY_DATA_FILE: opening file data.ptracers
(PID.TID 0000.0001) // =======================================================
(PID.TID 0000.0001) // Parameter file "data.ptracers"
(PID.TID 0000.0001) // =======================================================
(PID.TID 0000.0001) > &PTRACERS_PARM01
(PID.TID 0000.0001) > PTRACERS_numInUse=97,
(PID.TID 0000.0001) > PTRACERS_Iter0= 0,
(PID.TID 0000.0001) > PTRACERS_advScheme= 97*33,
(PID.TID 0000.0001) > PTRACERS_diffKh=    97*0.E3,
(PID.TID 0000.0001) > PTRACERS_diffKr=    97*1.E-5,
(PID.TID 0000.0001) > PTRACERS_useGMRedi= 97*.FALSE. ,
(PID.TID 0000.0001) >#
(PID.TID 0000.0001) >       PTRACERS_names(1)= 'DIC',
(PID.TID 0000.0001) >       PTRACERS_names(2)= 'NH4',
(PID.TID 0000.0001) >       PTRACERS_names(3)= 'NO2',
(PID.TID 0000.0001) >       PTRACERS_names(4)= 'NO3',
(PID.TID 0000.0001) >       PTRACERS_names(5)= 'PO4',
(PID.TID 0000.0001) >       PTRACERS_names(6)= 'SiO2',
(PID.TID 0000.0001) >       PTRACERS_names(7)= 'FeT',
(PID.TID 0000.0001) >       PTRACERS_names(8)= 'DOC',
(PID.TID 0000.0001) >       PTRACERS_names(9)= 'DON',
(PID.TID 0000.0001) >       PTRACERS_names(10)= 'DOP',
(PID.TID 0000.0001) >       PTRACERS_names(11)= 'DOFe',
(PID.TID 0000.0001) >       PTRACERS_names(12)= 'POC',
(PID.TID 0000.0001) >       PTRACERS_names(13)= 'PON',
(PID.TID 0000.0001) >       PTRACERS_names(14)= 'POP',
(PID.TID 0000.0001) >       PTRACERS_names(15)= 'POSi',
(PID.TID 0000.0001) >       PTRACERS_names(16)= 'POFe',
(PID.TID 0000.0001) >       PTRACERS_names(17)= 'PIC',
(PID.TID 0000.0001) >       PTRACERS_names(18)= 'c01',
(PID.TID 0000.0001) >       PTRACERS_names(19)= 'c02',
(PID.TID 0000.0001) >       PTRACERS_names(20)= 'c03',
(PID.TID 0000.0001) >       PTRACERS_names(21)= 'c04',
(PID.TID 0000.0001) >       PTRACERS_names(22)= 'c05',
(PID.TID 0000.0001) >       PTRACERS_names(23)= 'c06',
(PID.TID 0000.0001) >       PTRACERS_names(24)= 'c07',
(PID.TID 0000.0001) >       PTRACERS_names(25)= 'c08',
(PID.TID 0000.0001) >       PTRACERS_names(26)= 'c09',
(PID.TID 0000.0001) >       PTRACERS_names(27)= 'c10',
(PID.TID 0000.0001) >       PTRACERS_names(28)= 'c11',
(PID.TID 0000.0001) >       PTRACERS_names(29)= 'c12',
(PID.TID 0000.0001) >       PTRACERS_names(30)= 'c13',
(PID.TID 0000.0001) >       PTRACERS_names(31)= 'c14',
(PID.TID 0000.0001) >       PTRACERS_names(32)= 'c15',
(PID.TID 0000.0001) >       PTRACERS_names(33)= 'c16',
(PID.TID 0000.0001) >       PTRACERS_names(34)= 'c17',
(PID.TID 0000.0001) >       PTRACERS_names(35)= 'c18',
(PID.TID 0000.0001) >       PTRACERS_names(36)= 'c19',
(PID.TID 0000.0001) >       PTRACERS_names(37)= 'c20',
(PID.TID 0000.0001) >       PTRACERS_names(38)= 'c21',
(PID.TID 0000.0001) >       PTRACERS_names(39)= 'c22',
(PID.TID 0000.0001) >       PTRACERS_names(40)= 'c23',
(PID.TID 0000.0001) >       PTRACERS_names(41)= 'c24',
(PID.TID 0000.0001) >       PTRACERS_names(42)= 'c25',
(PID.TID 0000.0001) >       PTRACERS_names(43)= 'c26',
(PID.TID 0000.0001) >       PTRACERS_names(44)= 'c27',
(PID.TID 0000.0001) >       PTRACERS_names(45)= 'c28',
(PID.TID 0000.0001) >       PTRACERS_names(46)= 'c29',
(PID.TID 0000.0001) >       PTRACERS_names(47)= 'c30',
(PID.TID 0000.0001) >       PTRACERS_names(48)= 'c31',
(PID.TID 0000.0001) >       PTRACERS_names(49)= 'c32',
(PID.TID 0000.0001) >       PTRACERS_names(50)= 'c33',
(PID.TID 0000.0001) >       PTRACERS_names(51)= 'c34',
(PID.TID 0000.0001) >       PTRACERS_names(52)= 'c35',
(PID.TID 0000.0001) >       PTRACERS_names(53)= 'c36',
(PID.TID 0000.0001) >       PTRACERS_names(54)= 'c37',
(PID.TID 0000.0001) >       PTRACERS_names(55)= 'c38',
(PID.TID 0000.0001) >       PTRACERS_names(56)= 'c39',
(PID.TID 0000.0001) >       PTRACERS_names(57)= 'c40',
(PID.TID 0000.0001) >       PTRACERS_names(58)= 'c41',
(PID.TID 0000.0001) >       PTRACERS_names(59)= 'c42',
(PID.TID 0000.0001) >       PTRACERS_names(60)= 'c43',
(PID.TID 0000.0001) >       PTRACERS_names(61)= 'c44',
(PID.TID 0000.0001) >       PTRACERS_names(62)= 'c45',
(PID.TID 0000.0001) >       PTRACERS_names(63)= 'c46',
(PID.TID 0000.0001) >       PTRACERS_names(64)= 'c47',
(PID.TID 0000.0001) >       PTRACERS_names(65)= 'c48',
(PID.TID 0000.0001) >       PTRACERS_names(66)= 'c49',
(PID.TID 0000.0001) >       PTRACERS_names(67)= 'c50',
(PID.TID 0000.0001) >       PTRACERS_names(68)= 'c51',
(PID.TID 0000.0001) >       PTRACERS_names(69)= 'c52',
(PID.TID 0000.0001) >       PTRACERS_names(70)= 'c53',
(PID.TID 0000.0001) >       PTRACERS_names(71)= 'c54',
(PID.TID 0000.0001) >       PTRACERS_names(72)= 'c55',
(PID.TID 0000.0001) >       PTRACERS_names(73)= 'c56',
(PID.TID 0000.0001) >       PTRACERS_names(74)= 'c57',
(PID.TID 0000.0001) >       PTRACERS_names(75)= 'c58',
(PID.TID 0000.0001) >       PTRACERS_names(76)= 'c59',
(PID.TID 0000.0001) >       PTRACERS_names(77)= 'c60',
(PID.TID 0000.0001) >       PTRACERS_names(78)= 'c61',
(PID.TID 0000.0001) >       PTRACERS_names(79)= 'c62',
(PID.TID 0000.0001) >       PTRACERS_names(80)= 'c63',
(PID.TID 0000.0001) >       PTRACERS_names(81)= 'c64',
(PID.TID 0000.0001) >       PTRACERS_names(82)= 'c65',
(PID.TID 0000.0001) >       PTRACERS_names(83)= 'c66',
(PID.TID 0000.0001) >       PTRACERS_names(84)= 'c67',
(PID.TID 0000.0001) >       PTRACERS_names(85)= 'c68',
(PID.TID 0000.0001) >       PTRACERS_names(86)= 'c69',
(PID.TID 0000.0001) >       PTRACERS_names(87)= 'c70',
(PID.TID 0000.0001) >       PTRACERS_names(88)= 'c71',
(PID.TID 0000.0001) >       PTRACERS_names(89)= 'c72',
(PID.TID 0000.0001) >       PTRACERS_names(90)= 'c73',
(PID.TID 0000.0001) >       PTRACERS_names(91)= 'c74',
(PID.TID 0000.0001) >       PTRACERS_names(92)= 'c75',
(PID.TID 0000.0001) >       PTRACERS_names(93)= 'c76',
(PID.TID 0000.0001) >       PTRACERS_names(94)= 'c77',
(PID.TID 0000.0001) >       PTRACERS_names(95)= 'c78',
(PID.TID 0000.0001) > PTRACERS_names(96)= 'zc1',
(PID.TID 0000.0001) > PTRACERS_names(97)= 'zc2',
(PID.TID 0000.0001) >#
(PID.TID 0000.0001) > PTRACERS_units(1)='mmol C/m^3'
(PID.TID 0000.0001) > PTRACERS_units(2)='mmol N/m^3'
(PID.TID 0000.0001) > PTRACERS_units(3)='mmol N/m^3'
(PID.TID 0000.0001) > PTRACERS_units(4)='mmol N/m^3'
(PID.TID 0000.0001) > PTRACERS_units(5)='mmol P/m^3'
(PID.TID 0000.0001) > PTRACERS_units(6)='mmol Si/m^3'
(PID.TID 0000.0001) > PTRACERS_units(7)='mmol Fe/m^3'
(PID.TID 0000.0001) > PTRACERS_units(8)='mmol C/m^3'
(PID.TID 0000.0001) > PTRACERS_units(9)='mmol N/m^3'
(PID.TID 0000.0001) > PTRACERS_units(10)='mmol P/m^3'
(PID.TID 0000.0001) > PTRACERS_units(11)='mmol Fe/m^3'
(PID.TID 0000.0001) > PTRACERS_units(12)='mmol C/m^3'
(PID.TID 0000.0001) > PTRACERS_units(13)='mmol N/m^3'
(PID.TID 0000.0001) > PTRACERS_units(14)='mmol P/m^3'
(PID.TID 0000.0001) > PTRACERS_units(15)='mmol Si/m^3'
(PID.TID 0000.0001) > PTRACERS_units(16)='mmol Fe/m^3'
(PID.TID 0000.0001) > PTRACERS_units(17)='mmol C/m^3'
(PID.TID 0000.0001) > PTRACERS_units(18:97)=80*'mmol C/m^3'
(PID.TID 0000.0001) >#
(PID.TID 0000.0001) > PTRACERS_ref(1:35,   1)= 35*2e3,
(PID.TID 0000.0001) > PTRACERS_initialFile(2)='../input/input/loc1_NH4_run83_janprof.bin',
(PID.TID 0000.0001) > PTRACERS_initialFile(3)='../input/input/loc1_NO2_run83_janprof.bin',
(PID.TID 0000.0001) > PTRACERS_initialFile(4)='../input/input/loc1_nitr_janprof.bin',
(PID.TID 0000.0001) > PTRACERS_initialFile(5)='../input/input/loc1_phos_janprof.bin',
(PID.TID 0000.0001) > PTRACERS_initialFile(6)='../input/input/loc1_sil_janprof.bin',
(PID.TID 0000.0001) > PTRACERS_initialFile(7)='../input/input/fet_uniform.bin',
(PID.TID 0000.0001) > PTRACERS_ref(1:35,   8)= 35*0e0,
(PID.TID 0000.0001) > PTRACERS_initialFile(9)='../input/input/loc1_DON_run83_janprof.bin',
(PID.TID 0000.0001) > PTRACERS_initialFile(10)='../input/input/loc1_DOP_run83_janprof.bin',
(PID.TID 0000.0001) > PTRACERS_initialFile(11)='../input/input/loc1_DOFe_run83_janprof.bin',
(PID.TID 0000.0001) > PTRACERS_ref(1:35,   12)= 35*0e0,
(PID.TID 0000.0001) > PTRACERS_initialFile(13)='../input/input/loc1_PON_run83_janprof.bin',
(PID.TID 0000.0001) > PTRACERS_initialFile(14)='../input/input/loc1_POP_run83_janprof.bin',
(PID.TID 0000.0001) > PTRACERS_initialFile(15)='../input/input/loc1_POSi_run83_janprof.bin',
(PID.TID 0000.0001) > PTRACERS_initialFile(16)='../input/input/loc1_POFe_run83_janprof.bin',
(PID.TID 0000.0001) > PTRACERS_ref(1:35,   17)= 35*0e0,
(PID.TID 0000.0001) > PTRACERS_initialFile(18:95)=78*'../input/input/loc1_biomass_run83_janprof.bin',
(PID.TID 0000.0001) > PTRACERS_initialFile(96)='../input/input/loc1_ZOOP_run83_janprof.bin',
(PID.TID 0000.0001) > PTRACERS_initialFile(97)='../input/input/loc1_ZOOP_run83_janprof.bin',
(PID.TID 0000.0001) > /
(PID.TID 0000.0001) 
(PID.TID 0000.0001)  PTRACERS_READPARMS: finished reading data.ptracers
(PID.TID 0000.0001)  GCHEM_READPARMS: opening data.gchem
(PID.TID 0000.0001)  OPEN_COPY_DATA_FILE: opening file data.gchem
(PID.TID 0000.0001) // =======================================================
(PID.TID 0000.0001) // Parameter file "data.gchem"
(PID.TID 0000.0001) // =======================================================
(PID.TID 0000.0001) > &GCHEM_PARM01
(PID.TID 0000.0001) >  useGUD=.TRUE.,
(PID.TID 0000.0001) >  nsubtime=1,
(PID.TID 0000.0001) > /
(PID.TID 0000.0001) 
(PID.TID 0000.0001)  GCHEM_READPARMS: finished reading data.gchem
(PID.TID 0000.0001)  GUD_READPARMS: opening data.gud
(PID.TID 0000.0001)  OPEN_COPY_DATA_FILE: opening file data.gud
(PID.TID 0000.0001) // =======================================================
(PID.TID 0000.0001) // Parameter file "data.gud"
(PID.TID 0000.0001) // =======================================================
(PID.TID 0000.0001) > &GUD_FORCING_PARAMS
(PID.TID 0000.0001) > /
(PID.TID 0000.0001) > &GUD_EXF_PARAMS
(PID.TID 0000.0001) > ironFile='../input/input/loc1_FeFlux_monsurf.bin',
(PID.TID 0000.0001) > PARFile='../input/input/loc1_PAR_monsurf.bin',
(PID.TID 0000.0001) > ironPeriod= -12.,
(PID.TID 0000.0001) > PARPeriod= -12.,
(PID.TID 0000.0001) > gud_inscal_iron= 1000.,
(PID.TID 0000.0001) > gud_inscal_PAR= 11.574074074074,
(PID.TID 0000.0001) > /
(PID.TID 0000.0001) > &GUD_PARAMS
(PID.TID 0000.0001) > gud_seed= 11231,
(PID.TID 0000.0001) > gud_read_phos= T,
(PID.TID 0000.0001) > /
(PID.TID 0000.0001) > &GUD_RADTRANS_PARAMS
(PID.TID 0000.0001) > /
(PID.TID 0000.0001) > &GUD_TRAIT_PARAMS
(PID.TID 0000.0001) > oldTwoGrazers= .TRUE.,
(PID.TID 0000.0001) > diatom_growfac= 1.0,
(PID.TID 0000.0001) > /
(PID.TID 0000.0001) > &GUD_ALLOMETRIC_PARAMS
(PID.TID 0000.0001) > /
(PID.TID 0000.0001) 
(PID.TID 0000.0001)  ===================================
(PID.TID 0000.0001)  DIAGNOSTICS_READPARMS: opening data.diagnostics
(PID.TID 0000.0001)  OPEN_COPY_DATA_FILE: opening file data.diagnostics
(PID.TID 0000.0001) // =======================================================
(PID.TID 0000.0001) // Parameter file "data.diagnostics"
(PID.TID 0000.0001) // =======================================================
(PID.TID 0000.0001) ># Gud diagnostics
(PID.TID 0000.0001) ># ==================
(PID.TID 0000.0001) > &diagnostics_list
(PID.TID 0000.0001) >#
(PID.TID 0000.0001) >  frequency(1) = 3600.,
(PID.TID 0000.0001) >  fields( 1,1) = 'TRAC01  ',
(PID.TID 0000.0001) >  fields( 2,1) = 'TRAC02  ',
(PID.TID 0000.0001) >  fields( 3,1) = 'TRAC03  ',
(PID.TID 0000.0001) >  fields( 4,1) = 'TRAC04  ',
(PID.TID 0000.0001) >  fields( 5,1) = 'TRAC05  ',
(PID.TID 0000.0001) >  fields( 6,1) = 'TRAC06  ',
(PID.TID 0000.0001) >  fields( 7,1) = 'TRAC07  ',
(PID.TID 0000.0001) >  fields( 8,1) = 'TRAC08  ',
(PID.TID 0000.0001) >  fields( 9,1) = 'TRAC09  ',
(PID.TID 0000.0001) >  fields(10,1) = 'TRAC10  ',
(PID.TID 0000.0001) >  fields(11,1) = 'TRAC11  ',
(PID.TID 0000.0001) >  fields(12,1) = 'TRAC12  ',
(PID.TID 0000.0001) >  fields(13,1) = 'TRAC13  ',
(PID.TID 0000.0001) >  fields(14,1) = 'TRAC14  ',
(PID.TID 0000.0001) >  fields(15,1) = 'TRAC15  ',
(PID.TID 0000.0001) >  fields(16,1) = 'TRAC16  ',
(PID.TID 0000.0001) >  fields(17,1) = 'TRAC17  ',
(PID.TID 0000.0001) >  fields(18,1) = 'TRAC18  ',
(PID.TID 0000.0001) >  fields(19,1) = 'TRAC19  ',
(PID.TID 0000.0001) >  fields(20,1) = 'TRAC20  ',
(PID.TID 0000.0001) >  fields(21,1) = 'TRAC21  ',
(PID.TID 0000.0001) >  fields(22,1) = 'TRAC22  ',
(PID.TID 0000.0001) >  fields(23,1) = 'TRAC23  ',
(PID.TID 0000.0001) >  fields(24,1) = 'TRAC24  ',
(PID.TID 0000.0001) >  fields(25,1) = 'TRAC25  ',
(PID.TID 0000.0001) >  fields(26,1) = 'TRAC26  ',
(PID.TID 0000.0001) >  fields(27,1) = 'TRAC27  ',
(PID.TID 0000.0001) >  fields(28,1) = 'TRAC28  ',
(PID.TID 0000.0001) >  fields(29,1) = 'TRAC29  ',
(PID.TID 0000.0001) >  fields(30,1) = 'TRAC30  ',
(PID.TID 0000.0001) >  fields(31,1) = 'TRAC31  ',
(PID.TID 0000.0001) >  fields(32,1) = 'TRAC32  ',
(PID.TID 0000.0001) >  fields(33,1) = 'TRAC33  ',
(PID.TID 0000.0001) >  fields(34,1) = 'TRAC34  ',
(PID.TID 0000.0001) >  fields(35,1) = 'TRAC35  ',
(PID.TID 0000.0001) >  fields(36,1) = 'TRAC36  ',
(PID.TID 0000.0001) >  fields(37,1) = 'TRAC37  ',
(PID.TID 0000.0001) >  fields(38,1) = 'TRAC38  ',
(PID.TID 0000.0001) >  fields(39,1) = 'TRAC39  ',
(PID.TID 0000.0001) >  fields(40,1) = 'TRAC40  ',
(PID.TID 0000.0001) >  fields(41,1) = 'TRAC41  ',
(PID.TID 0000.0001) >  fields(42,1) = 'TRAC42  ',
(PID.TID 0000.0001) >  fields(43,1) = 'TRAC43  ',
(PID.TID 0000.0001) >  fields(44,1) = 'TRAC44  ',
(PID.TID 0000.0001) >  fields(45,1) = 'TRAC45  ',
(PID.TID 0000.0001) >  fields(46,1) = 'TRAC46  ',
(PID.TID 0000.0001) >  fields(47,1) = 'TRAC47  ',
(PID.TID 0000.0001) >  fields(48,1) = 'TRAC48  ',
(PID.TID 0000.0001) >  fields(49,1) = 'TRAC49  ',
(PID.TID 0000.0001) >  fields(50,1) = 'TRAC50  ',
(PID.TID 0000.0001) >  fields(51,1) = 'TRAC51  ',
(PID.TID 0000.0001) >  fields(52,1) = 'TRAC52  ',
(PID.TID 0000.0001) >  fields(53,1) = 'TRAC53  ',
(PID.TID 0000.0001) >  fields(54,1) = 'TRAC54  ',
(PID.TID 0000.0001) >  fields(55,1) = 'TRAC55  ',
(PID.TID 0000.0001) >  fields(56,1) = 'TRAC56  ',
(PID.TID 0000.0001) >  fields(57,1) = 'TRAC57  ',
(PID.TID 0000.0001) >  fields(58,1) = 'TRAC58  ',
(PID.TID 0000.0001) >  fields(59,1) = 'TRAC59  ',
(PID.TID 0000.0001) >  fields(60,1) = 'TRAC60  ',
(PID.TID 0000.0001) >  fields(61,1) = 'TRAC61  ',
(PID.TID 0000.0001) >  fields(62,1) = 'TRAC62  ',
(PID.TID 0000.0001) >  fields(63,1) = 'TRAC63  ',
(PID.TID 0000.0001) >  fields(64,1) = 'TRAC64  ',
(PID.TID 0000.0001) >  fields(65,1) = 'TRAC65  ',
(PID.TID 0000.0001) >  fields(66,1) = 'TRAC66  ',
(PID.TID 0000.0001) >  fields(67,1) = 'TRAC67  ',
(PID.TID 0000.0001) >  fields(68,1) = 'TRAC68  ',
(PID.TID 0000.0001) >  fields(69,1) = 'TRAC69  ',
(PID.TID 0000.0001) >  fields(70,1) = 'TRAC70  ',
(PID.TID 0000.0001) >  fields(71,1) = 'TRAC71  ',
(PID.TID 0000.0001) >  fields(72,1) = 'TRAC72  ',
(PID.TID 0000.0001) >  fields(73,1) = 'TRAC73  ',
(PID.TID 0000.0001) >  fields(74,1) = 'TRAC74  ',
(PID.TID 0000.0001) >  fields(75,1) = 'TRAC75  ',
(PID.TID 0000.0001) >  fields(76,1) = 'TRAC76  ',
(PID.TID 0000.0001) >  fields(77,1) = 'TRAC77  ',
(PID.TID 0000.0001) >  fields(78,1) = 'TRAC78  ',
(PID.TID 0000.0001) >  fields(79,1) = 'TRAC79  ',
(PID.TID 0000.0001) >  fields(80,1) = 'TRAC80  ',
(PID.TID 0000.0001) >  fields(81,1) = 'TRAC81  ',
(PID.TID 0000.0001) >  fields(82,1) = 'TRAC82  ',
(PID.TID 0000.0001) >  fields(83,1) = 'TRAC83  ',
(PID.TID 0000.0001) >  fields(84,1) = 'TRAC84  ',
(PID.TID 0000.0001) >  fields(85,1) = 'TRAC85  ',
(PID.TID 0000.0001) >  fields(86,1) = 'TRAC86  ',
(PID.TID 0000.0001) >  fields(87,1) = 'TRAC87  ',
(PID.TID 0000.0001) >  fields(88,1) = 'TRAC88  ',
(PID.TID 0000.0001) >  fields(89,1) = 'TRAC89  ',
(PID.TID 0000.0001) >  fields(90,1) = 'TRAC90  ',
(PID.TID 0000.0001) >  fields(91,1) = 'TRAC91  ',
(PID.TID 0000.0001) >  fields(92,1) = 'TRAC92  ',
(PID.TID 0000.0001) >  fields(93,1) = 'TRAC93  ',
(PID.TID 0000.0001) >  fields(94,1) = 'TRAC94  ',
(PID.TID 0000.0001) >  fields(95,1) = 'TRAC95  ',
(PID.TID 0000.0001) >  fields(96,1) = 'TRAC96  ',
(PID.TID 0000.0001) >  fields(97,1) = 'TRAC97  ',
(PID.TID 0000.0001) >  fields(98,1) = 'PAR01   ',
(PID.TID 0000.0001) >  fields(99,1) = 'PARF    ',
(PID.TID 0000.0001) >  fields(100,1) = 'atten   ',
(PID.TID 0000.0001) >  fields(101,1) = 'surfPAR ',
(PID.TID 0000.0001) >  fields(102,1) = 'exfPAR  ',
(PID.TID 0000.0001) >    filename(1) = 'gud',
(PID.TID 0000.0001) >#
(PID.TID 0000.0001) > /
(PID.TID 0000.0001) >
(PID.TID 0000.0001) ># Parameter for Diagnostics of per level statistics:
(PID.TID 0000.0001) >#-----------------
(PID.TID 0000.0001) ># for each output-stream:
(PID.TID 0000.0001) >#  stat_fname(n) : prefix of the output file name (only 8.c long) for
(PID.TID 0000.0001) >#outp.stream n
(PID.TID 0000.0001) >#  stat_freq(n):< 0 : write snap-shot output every |stat_freq| seconds
(PID.TID 0000.0001) >#               > 0 : write time-average output every stat_freq seconds
(PID.TID 0000.0001) >#  stat_phase(n)    : write at time = stat_phase + multiple of |stat_freq|
(PID.TID 0000.0001) >#  stat_region(:,n) : list of "regions" (default: 1 region only=global)
(PID.TID 0000.0001) >#  stat_fields(:,n) : list of diagnostics fields (8.c) (see
(PID.TID 0000.0001) >#"available_diagnostics.log"
(PID.TID 0000.0001) >#                 file for the list of all available diag. in this particular
(PID.TID 0000.0001) >#config)
(PID.TID 0000.0001) >#-----------------
(PID.TID 0000.0001) > &DIAG_STATIS_PARMS
(PID.TID 0000.0001) > diagst_mnc=.FALSE.,
(PID.TID 0000.0001) >#     stat_freq(1:21)= 21*3600.,
(PID.TID 0000.0001) >#    stat_phase(1:21)= 21*0.,
(PID.TID 0000.0001) ># stat_fields(1,1)= 'TRAC01  '
(PID.TID 0000.0001) ># stat_fields(1,2)= 'TRAC02  '
(PID.TID 0000.0001) ># stat_fields(1,3)= 'TRAC03  '
(PID.TID 0000.0001) ># stat_fields(1,4)= 'TRAC04  '
(PID.TID 0000.0001) ># stat_fields(1,5)= 'TRAC05  '
(PID.TID 0000.0001) ># stat_fields(1,6)= 'TRAC06  '
(PID.TID 0000.0001) ># stat_fields(1,7)= 'TRAC07  '
(PID.TID 0000.0001) ># stat_fields(1,8)= 'TRAC08  '
(PID.TID 0000.0001) ># stat_fields(1,9)= 'TRAC09  '
(PID.TID 0000.0001) ># stat_fields(1,10)= 'TRAC10  '
(PID.TID 0000.0001) ># stat_fields(1,11)= 'TRAC11  '
(PID.TID 0000.0001) ># stat_fields(1,12)= 'TRAC12  '
(PID.TID 0000.0001) ># stat_fields(1,13)= 'TRAC13  '
(PID.TID 0000.0001) ># stat_fields(1,14)= 'TRAC14  '
(PID.TID 0000.0001) ># stat_fields(1,15)= 'TRAC15  '
(PID.TID 0000.0001) ># stat_fields(1,16)= 'TRAC16  '
(PID.TID 0000.0001) ># stat_fields(1,17)= 'TRAC17  '
(PID.TID 0000.0001) ># stat_fields(1,18)= 'TRAC18  '
(PID.TID 0000.0001) ># stat_fields(1,19)= 'TRAC19  '
(PID.TID 0000.0001) ># stat_fields(1,20)= 'TRAC20  '
(PID.TID 0000.0001) ># stat_fields(1,21)= 'TRAC21  '
(PID.TID 0000.0001) >#    stat_fname(1)= 'stats/DIC',
(PID.TID 0000.0001) >#    stat_fname(2)= 'stats/NH4',
(PID.TID 0000.0001) >#    stat_fname(3)= 'stats/NO2',
(PID.TID 0000.0001) >#    stat_fname(4)= 'stats/NO3',
(PID.TID 0000.0001) >#    stat_fname(5)= 'stats/PO4',
(PID.TID 0000.0001) >#    stat_fname(6)= 'stats/SiO2',
(PID.TID 0000.0001) >#    stat_fname(7)= 'stats/FeT',
(PID.TID 0000.0001) >#    stat_fname(8)= 'stats/DOC',
(PID.TID 0000.0001) >#    stat_fname(9)= 'stats/DON',
(PID.TID 0000.0001) >#    stat_fname(10)= 'stats/DOP',
(PID.TID 0000.0001) >#    stat_fname(11)= 'stats/DOFe',
(PID.TID 0000.0001) >#    stat_fname(12)= 'stats/POC',
(PID.TID 0000.0001) >#    stat_fname(13)= 'stats/PON',
(PID.TID 0000.0001) >#    stat_fname(14)= 'stats/POP',
(PID.TID 0000.0001) >#    stat_fname(15)= 'stats/POSi',
(PID.TID 0000.0001) >#    stat_fname(16)= 'stats/POFe',
(PID.TID 0000.0001) >#    stat_fname(17)= 'stats/PIC',
(PID.TID 0000.0001) >#    stat_fname(18)= 'stats/c1',
(PID.TID 0000.0001) >#    stat_fname(19)= 'stats/c2',
(PID.TID 0000.0001) >#    stat_fname(20)= 'stats/c3',
(PID.TID 0000.0001) >#    stat_fname(21)= 'stats/c4',
(PID.TID 0000.0001) > /
(PID.TID 0000.0001) 
(PID.TID 0000.0001) S/R DIAGNOSTICS_READPARMS, read namelist "diagnostics_list": start
(PID.TID 0000.0001) S/R DIAGNOSTICS_READPARMS, read namelist "diagnostics_list": OK
(PID.TID 0000.0001) S/R DIAGNOSTICS_READPARMS, read namelist "DIAG_STATIS_PARMS": start
(PID.TID 0000.0001) S/R DIAGNOSTICS_READPARMS, read namelist "DIAG_STATIS_PARMS": OK
(PID.TID 0000.0001)  DIAGNOSTICS_READPARMS: global parameter summary:
(PID.TID 0000.0001)  dumpAtLast = /* always write time-ave diags at the end */
(PID.TID 0000.0001)                   F
(PID.TID 0000.0001)     ;
(PID.TID 0000.0001)  diag_mnc =   /* write NetCDF output files */
(PID.TID 0000.0001)                   T
(PID.TID 0000.0001)     ;
(PID.TID 0000.0001)  useMissingValue = /* put MissingValue where mask = 0 */
(PID.TID 0000.0001)                   F
(PID.TID 0000.0001)     ;
(PID.TID 0000.0001)  diagCG_maxIters = /* max number of iters in diag_cg2d */
(PID.TID 0000.0001)                     300
(PID.TID 0000.0001)     ;
(PID.TID 0000.0001)  diagCG_resTarget = /* residual target for diag_cg2d */
(PID.TID 0000.0001)                 1.000000000000000E-07
(PID.TID 0000.0001)     ;
(PID.TID 0000.0001) -----------------------------------------------------
(PID.TID 0000.0001)  DIAGNOSTICS_READPARMS: active diagnostics summary:
(PID.TID 0000.0001) -----------------------------------------------------
(PID.TID 0000.0001) Creating Output Stream: gud
(PID.TID 0000.0001) Output Frequency:       3600.000000 ; Phase:           0.000000
(PID.TID 0000.0001)  Averaging Freq.:       3600.000000 , Phase:           0.000000 , Cycle:   1
(PID.TID 0000.0001)  missing value: -9.990000000000E+02
(PID.TID 0000.0001)  Levels:    will be set later
(PID.TID 0000.0001)  Fields:    TRAC01   TRAC02   TRAC03   TRAC04   TRAC05   TRAC06   TRAC07   TRAC08   TRAC09   TRAC10
(PID.TID 0000.0001)  Fields:    TRAC11   TRAC12   TRAC13   TRAC14   TRAC15   TRAC16   TRAC17   TRAC18   TRAC19   TRAC20
(PID.TID 0000.0001)  Fields:    TRAC21   TRAC22   TRAC23   TRAC24   TRAC25   TRAC26   TRAC27   TRAC28   TRAC29   TRAC30
(PID.TID 0000.0001)  Fields:    TRAC31   TRAC32   TRAC33   TRAC34   TRAC35   TRAC36   TRAC37   TRAC38   TRAC39   TRAC40
(PID.TID 0000.0001)  Fields:    TRAC41   TRAC42   TRAC43   TRAC44   TRAC45   TRAC46   TRAC47   TRAC48   TRAC49   TRAC50
(PID.TID 0000.0001)  Fields:    TRAC51   TRAC52   TRAC53   TRAC54   TRAC55   TRAC56   TRAC57   TRAC58   TRAC59   TRAC60
(PID.TID 0000.0001)  Fields:    TRAC61   TRAC62   TRAC63   TRAC64   TRAC65   TRAC66   TRAC67   TRAC68   TRAC69   TRAC70
(PID.TID 0000.0001)  Fields:    TRAC71   TRAC72   TRAC73   TRAC74   TRAC75   TRAC76   TRAC77   TRAC78   TRAC79   TRAC80
(PID.TID 0000.0001)  Fields:    TRAC81   TRAC82   TRAC83   TRAC84   TRAC85   TRAC86   TRAC87   TRAC88   TRAC89   TRAC90
(PID.TID 0000.0001)  Fields:    TRAC91   TRAC92   TRAC93   TRAC94   TRAC95   TRAC96   TRAC97   PAR01    PARF     atten
(PID.TID 0000.0001)  Fields:    surfPAR  exfPAR
(PID.TID 0000.0001) -----------------------------------------------------
(PID.TID 0000.0001)  DIAGNOSTICS_READPARMS: statistics diags. summary:
(PID.TID 0000.0001) -----------------------------------------------------
(PID.TID 0000.0001) 
(PID.TID 0000.0001) SET_PARMS: done
(PID.TID 0000.0001) Enter INI_VERTICAL_GRID: setInterFDr=    T ; setCenterDr=    F
(PID.TID 0000.0001) %MON XC_max                       =   3.3550000000000000E+02
(PID.TID 0000.0001) %MON XC_min                       =   3.3550000000000000E+02
(PID.TID 0000.0001) %MON XC_mean                      =   3.3550000000000000E+02
(PID.TID 0000.0001) %MON XC_sd                        =   0.0000000000000000E+00
(PID.TID 0000.0001) %MON XG_max                       =   3.3500000000000000E+02
(PID.TID 0000.0001) %MON XG_min                       =   3.3500000000000000E+02
(PID.TID 0000.0001) %MON XG_mean                      =   3.3500000000000000E+02
(PID.TID 0000.0001) %MON XG_sd                        =   0.0000000000000000E+00
(PID.TID 0000.0001) %MON DXC_max                      =   1.0603184087719869E+05
(PID.TID 0000.0001) %MON DXC_min                      =   1.0603184087719869E+05
(PID.TID 0000.0001) %MON DXC_mean                     =   1.0603184087719869E+05
(PID.TID 0000.0001) %MON DXC_sd                       =   0.0000000000000000E+00
(PID.TID 0000.0001) %MON DXF_max                      =   1.0603184087719869E+05
(PID.TID 0000.0001) %MON DXF_min                      =   1.0603184087719869E+05
(PID.TID 0000.0001) %MON DXF_mean                     =   1.0603184087719869E+05
(PID.TID 0000.0001) %MON DXF_sd                       =   0.0000000000000000E+00
(PID.TID 0000.0001) %MON DXG_max                      =   1.0573606049668728E+05
(PID.TID 0000.0001) %MON DXG_min                      =   1.0573606049668728E+05
(PID.TID 0000.0001) %MON DXG_mean                     =   1.0573606049668728E+05
(PID.TID 0000.0001) %MON DXG_sd                       =   0.0000000000000000E+00
(PID.TID 0000.0001) %MON DXV_max                      =   1.0573606049668728E+05
(PID.TID 0000.0001) %MON DXV_min                      =   1.0573606049668728E+05
(PID.TID 0000.0001) %MON DXV_mean                     =   1.0573606049668728E+05
(PID.TID 0000.0001) %MON DXV_sd                       =   0.0000000000000000E+00
(PID.TID 0000.0001) %MON YC_max                       =  -1.7500000000000000E+01
(PID.TID 0000.0001) %MON YC_min                       =  -1.7500000000000000E+01
(PID.TID 0000.0001) %MON YC_mean                      =  -1.7500000000000000E+01
(PID.TID 0000.0001) %MON YC_sd                        =   0.0000000000000000E+00
(PID.TID 0000.0001) %MON YG_max                       =  -1.8000000000000000E+01
(PID.TID 0000.0001) %MON YG_min                       =  -1.8000000000000000E+01
(PID.TID 0000.0001) %MON YG_mean                      =  -1.8000000000000000E+01
(PID.TID 0000.0001) %MON YG_sd                        =   0.0000000000000000E+00
(PID.TID 0000.0001) %MON DYC_max                      =   1.1117747335203880E+05
(PID.TID 0000.0001) %MON DYC_min                      =   1.1117747335203880E+05
(PID.TID 0000.0001) %MON DYC_mean                     =   1.1117747335203880E+05
(PID.TID 0000.0001) %MON DYC_sd                       =   0.0000000000000000E+00
(PID.TID 0000.0001) %MON DYF_max                      =   1.1117747335203880E+05
(PID.TID 0000.0001) %MON DYF_min                      =   1.1117747335203880E+05
(PID.TID 0000.0001) %MON DYF_mean                     =   1.1117747335203880E+05
(PID.TID 0000.0001) %MON DYF_sd                       =   0.0000000000000000E+00
(PID.TID 0000.0001) %MON DYG_max                      =   1.1117747335203880E+05
(PID.TID 0000.0001) %MON DYG_min                      =   1.1117747335203880E+05
(PID.TID 0000.0001) %MON DYG_mean                     =   1.1117747335203880E+05
(PID.TID 0000.0001) %MON DYG_sd                       =   0.0000000000000000E+00
(PID.TID 0000.0001) %MON DYU_max                      =   1.1117747335203880E+05
(PID.TID 0000.0001) %MON DYU_min                      =   1.1117747335203880E+05
(PID.TID 0000.0001) %MON DYU_mean                     =   1.1117747335203880E+05
(PID.TID 0000.0001) %MON DYU_sd                       =   0.0000000000000000E+00
(PID.TID 0000.0001) %MON RA_max                       =   1.1788202541769560E+10
(PID.TID 0000.0001) %MON RA_min                       =   1.1788202541769560E+10
(PID.TID 0000.0001) %MON RA_mean                      =   1.1788202541769560E+10
(PID.TID 0000.0001) %MON RA_sd                        =   0.0000000000000000E+00
(PID.TID 0000.0001) %MON RAW_max                      =   1.1788202541769560E+10
(PID.TID 0000.0001) %MON RAW_min                      =   1.1788202541769560E+10
(PID.TID 0000.0001) %MON RAW_mean                     =   1.1788202541769560E+10
(PID.TID 0000.0001) %MON RAW_sd                       =   0.0000000000000000E+00
(PID.TID 0000.0001) %MON RAS_max                      =   1.1755318843773766E+10
(PID.TID 0000.0001) %MON RAS_min                      =   1.1755318843773766E+10
(PID.TID 0000.0001) %MON RAS_mean                     =   1.1755318843773766E+10
(PID.TID 0000.0001) %MON RAS_sd                       =   0.0000000000000000E+00
(PID.TID 0000.0001) %MON RAZ_max                      =   1.1755318843773766E+10
(PID.TID 0000.0001) %MON RAZ_min                      =   1.1755318843773766E+10
(PID.TID 0000.0001) %MON RAZ_mean                     =   1.1755318843773766E+10
(PID.TID 0000.0001) %MON RAZ_sd                       =   0.0000000000000000E+00
(PID.TID 0000.0001) %MON AngleCS_max                  =   1.0000000000000000E+00
(PID.TID 0000.0001) %MON AngleCS_min                  =   1.0000000000000000E+00
(PID.TID 0000.0001) %MON AngleCS_mean                 =   1.0000000000000000E+00
(PID.TID 0000.0001) %MON AngleCS_sd                   =   0.0000000000000000E+00
(PID.TID 0000.0001) %MON AngleSN_max                  =   0.0000000000000000E+00
(PID.TID 0000.0001) %MON AngleSN_min                  =   0.0000000000000000E+00
(PID.TID 0000.0001) %MON AngleSN_mean                 =   0.0000000000000000E+00
(PID.TID 0000.0001) %MON AngleSN_sd                   =   0.0000000000000000E+00
(PID.TID 0000.0001)  MDS_READ_FIELD: opening global file: ../input/input/bathyneg.bin
(PID.TID 0000.0001) // =======================================================
(PID.TID 0000.0001) // Field Model R_low (ini_masks_etc)
(PID.TID 0000.0001) // CMIN =         -3.495000000000000E+03
(PID.TID 0000.0001) // CMAX =         -3.495000000000000E+03
(PID.TID 0000.0001) // CINT =          0.000000000000000E+00
(PID.TID 0000.0001) // SYMBOLS (CMIN->CMAX): -abcdefghijklmnopqrstuvwxyz+
(PID.TID 0000.0001) //                  0.0: .
(PID.TID 0000.0001) // RANGE I (Lo:Hi:Step):(    -1:     3:     1)
(PID.TID 0000.0001) // RANGE J (Lo:Hi:Step):(     3:    -1:    -1)
(PID.TID 0000.0001) // RANGE K (Lo:Hi:Step):(   1:   1:   1)
(PID.TID 0000.0001) // =======================================================
(PID.TID 0000.0001) // =======================================================
(PID.TID 0000.0001) // END OF FIELD                                          =
(PID.TID 0000.0001) // =======================================================
(PID.TID 0000.0001) 
(PID.TID 0000.0001) // =======================================================
(PID.TID 0000.0001) // Field Model Ro_surf (ini_masks_etc)
(PID.TID 0000.0001) // CMIN =          1.000000000000000E+32
(PID.TID 0000.0001) // CMAX =         -1.000000000000000E+32
(PID.TID 0000.0001) // CINT =          0.000000000000000E+00
(PID.TID 0000.0001) // SYMBOLS (CMIN->CMAX): -abcdefghijklmnopqrstuvwxyz+
(PID.TID 0000.0001) //                  0.0: .
(PID.TID 0000.0001) // RANGE I (Lo:Hi:Step):(    -1:     3:     1)
(PID.TID 0000.0001) // RANGE J (Lo:Hi:Step):(     3:    -1:    -1)
(PID.TID 0000.0001) // RANGE K (Lo:Hi:Step):(   1:   1:   1)
(PID.TID 0000.0001) // =======================================================
(PID.TID 0000.0001) // =======================================================
(PID.TID 0000.0001) // END OF FIELD                                          =
(PID.TID 0000.0001) // =======================================================
(PID.TID 0000.0001) 
(PID.TID 0000.0001) // =======================================================
(PID.TID 0000.0001) // Field hFacC at iteration          0
(PID.TID 0000.0001) // CMIN =          1.000000000000000E+00
(PID.TID 0000.0001) // CMAX =          1.000000000000000E+00
(PID.TID 0000.0001) // CINT =          0.000000000000000E+00
(PID.TID 0000.0001) // SYMBOLS (CMIN->CMAX): -abcdefghijklmnopqrstuvwxyz+
(PID.TID 0000.0001) //                  0.0: .
(PID.TID 0000.0001) // RANGE I (Lo:Hi:Step):(    -1:     3:     1)
(PID.TID 0000.0001) // RANGE J (Lo:Hi:Step):(     3:    -1:    -1)
(PID.TID 0000.0001) // RANGE K (Lo:Hi:Step):(   1:   1:   1)
(PID.TID 0000.0001) // =======================================================
(PID.TID 0000.0001) // =======================================================
(PID.TID 0000.0001) // END OF FIELD                                          =
(PID.TID 0000.0001) // =======================================================
(PID.TID 0000.0001) 
(PID.TID 0000.0001) // =======================================================
(PID.TID 0000.0001) // Field hFacW at iteration          0
(PID.TID 0000.0001) // CMIN =          1.000000000000000E+00
(PID.TID 0000.0001) // CMAX =          1.000000000000000E+00
(PID.TID 0000.0001) // CINT =          0.000000000000000E+00
(PID.TID 0000.0001) // SYMBOLS (CMIN->CMAX): -abcdefghijklmnopqrstuvwxyz+
(PID.TID 0000.0001) //                  0.0: .
(PID.TID 0000.0001) // RANGE I (Lo:Hi:Step):(    -1:     3:     1)
(PID.TID 0000.0001) // RANGE J (Lo:Hi:Step):(     3:    -1:    -1)
(PID.TID 0000.0001) // RANGE K (Lo:Hi:Step):(   1:   1:   1)
(PID.TID 0000.0001) // =======================================================
(PID.TID 0000.0001) // =======================================================
(PID.TID 0000.0001) // END OF FIELD                                          =
(PID.TID 0000.0001) // =======================================================
(PID.TID 0000.0001) 
(PID.TID 0000.0001) // =======================================================
(PID.TID 0000.0001) // Field hFacS at iteration          0
(PID.TID 0000.0001) // CMIN =          1.000000000000000E+00
(PID.TID 0000.0001) // CMAX =          1.000000000000000E+00
(PID.TID 0000.0001) // CINT =          0.000000000000000E+00
(PID.TID 0000.0001) // SYMBOLS (CMIN->CMAX): -abcdefghijklmnopqrstuvwxyz+
(PID.TID 0000.0001) //                  0.0: .
(PID.TID 0000.0001) // RANGE I (Lo:Hi:Step):(    -1:     3:     1)
(PID.TID 0000.0001) // RANGE J (Lo:Hi:Step):(     3:    -1:    -1)
(PID.TID 0000.0001) // RANGE K (Lo:Hi:Step):(   1:   1:   1)
(PID.TID 0000.0001) // =======================================================
(PID.TID 0000.0001) // =======================================================
(PID.TID 0000.0001) // END OF FIELD                                          =
(PID.TID 0000.0001) // =======================================================
(PID.TID 0000.0001) 
(PID.TID 0000.0001) 
(PID.TID 0000.0001) // =======================================================
(PID.TID 0000.0001) // Calendar configuration >>> START <<<
(PID.TID 0000.0001) // =======================================================
(PID.TID 0000.0001) 
(PID.TID 0000.0001) modelstart = /* Start time of the model integration [s] */
(PID.TID 0000.0001)                 0.000000000000000E+00
(PID.TID 0000.0001)     ;
(PID.TID 0000.0001) modelend  = /* End time of the model integration [s] */
(PID.TID 0000.0001)                 1.440000000000000E+04
(PID.TID 0000.0001)     ;
(PID.TID 0000.0001) modelstep = /* Time interval for a model forward step [s] */
(PID.TID 0000.0001)                 3.600000000000000E+03
(PID.TID 0000.0001)     ;
(PID.TID 0000.0001) usingGregorianCalendar= /* Calendar Type: Gregorian Calendar */
(PID.TID 0000.0001)                   F
(PID.TID 0000.0001)     ;
(PID.TID 0000.0001) usingJulianCalendar = /* Calendar Type: Julian Calendar */
(PID.TID 0000.0001)                   F
(PID.TID 0000.0001)     ;
(PID.TID 0000.0001) usingModelCalendar  = /* Calendar Type: Model Calendar */
(PID.TID 0000.0001)                   T
(PID.TID 0000.0001)     ;
(PID.TID 0000.0001) modelstartdate YYYYMMDD = /* Model start date YYYY-MM-DD */
(PID.TID 0000.0001)                19920101
(PID.TID 0000.0001)     ;
(PID.TID 0000.0001)   modelstartdate HHMMSS = /* Model start date HH-MM-SS  */
(PID.TID 0000.0001)                       0
(PID.TID 0000.0001)     ;
(PID.TID 0000.0001) modelenddate   YYYYMMDD = /* Model end date YYYY-MM-DD */
(PID.TID 0000.0001)                19920101
(PID.TID 0000.0001)     ;
(PID.TID 0000.0001)   modelenddate   HHMMSS = /* Model end date HH-MM-SS  */
(PID.TID 0000.0001)                   40000
(PID.TID 0000.0001)     ;
(PID.TID 0000.0001) intyears = /* Number of calendar years affected by the integration */
(PID.TID 0000.0001)                       1
(PID.TID 0000.0001)     ;
(PID.TID 0000.0001) intmonths= /* Number of calendar months affected by the integration */
(PID.TID 0000.0001)                       1
(PID.TID 0000.0001)     ;
(PID.TID 0000.0001) intdays = /* Number of calendar days affected by the integration */
(PID.TID 0000.0001)                       1
(PID.TID 0000.0001)     ;
(PID.TID 0000.0001) modeliter0 = /* Base timestep number  */
(PID.TID 0000.0001)                       0
(PID.TID 0000.0001)     ;
(PID.TID 0000.0001) modeliterend = /* Final timestep number  */
(PID.TID 0000.0001)                       4
(PID.TID 0000.0001)     ;
(PID.TID 0000.0001) modelintsteps= /* Number of model timesteps  */
(PID.TID 0000.0001)                       4
(PID.TID 0000.0001)     ;
(PID.TID 0000.0001) 
(PID.TID 0000.0001) // =======================================================
(PID.TID 0000.0001) // Calendar configuration  >>> END <<<
(PID.TID 0000.0001) // =======================================================
(PID.TID 0000.0001) 
(PID.TID 0000.0001) GAD_INIT_FIXED: GAD_OlMinSize=  2  0  1
(PID.TID 0000.0001) 
(PID.TID 0000.0001) // ===================================
(PID.TID 0000.0001) // GAD parameters :
(PID.TID 0000.0001) // ===================================
(PID.TID 0000.0001) tempAdvScheme =   /* Temp. Horiz.Advection scheme selector */
(PID.TID 0000.0001)                       3
(PID.TID 0000.0001)     ;
(PID.TID 0000.0001) tempVertAdvScheme =   /* Temp. Vert. Advection scheme selector */
(PID.TID 0000.0001)                       3
(PID.TID 0000.0001)     ;
(PID.TID 0000.0001) tempMultiDimAdvec =   /* use Muti-Dim Advec method for Temp */
(PID.TID 0000.0001)                   F
(PID.TID 0000.0001)     ;
(PID.TID 0000.0001) tempSOM_Advection = /* use 2nd Order Moment Advection for Temp */
(PID.TID 0000.0001)                   F
(PID.TID 0000.0001)     ;
(PID.TID 0000.0001) AdamsBashforthGt = /* apply Adams-Bashforth extrapolation on Gt */
(PID.TID 0000.0001)                   T
(PID.TID 0000.0001)     ;
(PID.TID 0000.0001) AdamsBashforth_T = /* apply Adams-Bashforth extrapolation on Temp */
(PID.TID 0000.0001)                   F
(PID.TID 0000.0001)     ;
(PID.TID 0000.0001) saltAdvScheme =   /* Salt. Horiz.advection scheme selector */
(PID.TID 0000.0001)                       3
(PID.TID 0000.0001)     ;
(PID.TID 0000.0001) saltVertAdvScheme =   /* Salt. Vert. Advection scheme selector */
(PID.TID 0000.0001)                       3
(PID.TID 0000.0001)     ;
(PID.TID 0000.0001) saltMultiDimAdvec =   /* use Muti-Dim Advec method for Salt */
(PID.TID 0000.0001)                   F
(PID.TID 0000.0001)     ;
(PID.TID 0000.0001) saltSOM_Advection = /* use 2nd Order Moment Advection for Salt */
(PID.TID 0000.0001)                   F
(PID.TID 0000.0001)     ;
(PID.TID 0000.0001) AdamsBashforthGs = /* apply Adams-Bashforth extrapolation on Gs */
(PID.TID 0000.0001)                   F
(PID.TID 0000.0001)     ;
(PID.TID 0000.0001) AdamsBashforth_S = /* apply Adams-Bashforth extrapolation on Salt */
(PID.TID 0000.0001)                   F
(PID.TID 0000.0001)     ;
(PID.TID 0000.0001) // ===================================
(PID.TID 0000.0001) 
(PID.TID 0000.0001) // =======================================================
(PID.TID 0000.0001) // External forcing (EXF) configuration >>> START <<<
(PID.TID 0000.0001) // =======================================================
(PID.TID 0000.0001) 
(PID.TID 0000.0001)  EXF general parameters:
(PID.TID 0000.0001) 
(PID.TID 0000.0001) exf_iprec = /* exf file precision */
(PID.TID 0000.0001)                      32
(PID.TID 0000.0001)     ;
(PID.TID 0000.0001) useExfYearlyFields = /* add extension _YEAR to input file names */
(PID.TID 0000.0001)                   T
(PID.TID 0000.0001)     ;
(PID.TID 0000.0001) twoDigitYear = /* use 2-digit year extension */
(PID.TID 0000.0001)                   T
(PID.TID 0000.0001)     ;
(PID.TID 0000.0001) exf_verbose = /* print more messages to STDOUT */
(PID.TID 0000.0001)                   F
(PID.TID 0000.0001)     ;
(PID.TID 0000.0001) useExfCheckRange = /* check for fields range */
(PID.TID 0000.0001)                   F
(PID.TID 0000.0001)     ;
(PID.TID 0000.0001) exf_monFreq = /* EXF monitor frequency [ s ] */
(PID.TID 0000.0001)                 1.000000000000000E+00
(PID.TID 0000.0001)     ;
(PID.TID 0000.0001) repeatPeriod = /* period for cycling forcing dataset [ s ] */
(PID.TID 0000.0001)                 0.000000000000000E+00
(PID.TID 0000.0001)     ;
(PID.TID 0000.0001) climTempFreeze= /* Minimum climatological temperature [deg.C] */
(PID.TID 0000.0001)                -1.900000000000000E+00
(PID.TID 0000.0001)     ;
(PID.TID 0000.0001) windStressMax = /* Maximum absolute windstress [ Pa ] */
(PID.TID 0000.0001)                 2.000000000000000E+00
(PID.TID 0000.0001)     ;
(PID.TID 0000.0001) stressIsOnCgrid = /* set u,v_stress on Arakawa C-grid */
(PID.TID 0000.0001)                   F
(PID.TID 0000.0001)     ;
(PID.TID 0000.0001) cen2kel = /* conversion of deg. Centigrade to Kelvin [K] */
(PID.TID 0000.0001)                 2.731500000000000E+02
(PID.TID 0000.0001)     ;
(PID.TID 0000.0001) gravity_mks= /* gravitational acceleration [m/s^2] */
(PID.TID 0000.0001)                 9.810000000000000E+00
(PID.TID 0000.0001)     ;
(PID.TID 0000.0001) atmrho =  /* mean atmospheric density [kg/m^3] */
(PID.TID 0000.0001)                 1.200000000000000E+00
(PID.TID 0000.0001)     ;
(PID.TID 0000.0001) atmcp =  /* mean atmospheric specific heat [J/kg/K] */
(PID.TID 0000.0001)                 1.005000000000000E+03
(PID.TID 0000.0001)     ;
(PID.TID 0000.0001) flamb =  /* latent heat of evaporation [J/kg] */
(PID.TID 0000.0001)                 2.500000000000000E+06
(PID.TID 0000.0001)     ;
(PID.TID 0000.0001) flami =  /* latent heat of pure-ice melting [J/kg] */
(PID.TID 0000.0001)                 3.340000000000000E+05
(PID.TID 0000.0001)     ;
(PID.TID 0000.0001) cvapor_fac = /* const. for Saturation calculation [?] */
(PID.TID 0000.0001)                 6.403800000000000E+05
(PID.TID 0000.0001)     ;
(PID.TID 0000.0001) cvapor_exp = /* const. for Saturation calculation [?] */
(PID.TID 0000.0001)                 5.107400000000000E+03
(PID.TID 0000.0001)     ;
(PID.TID 0000.0001) cvapor_fac_ice= /* const. for Saturation calculation [?] */
(PID.TID 0000.0001)                 1.163780000000000E+07
(PID.TID 0000.0001)     ;
(PID.TID 0000.0001) cvapor_exp_ice= /* const. for Saturation calculation [?] */
(PID.TID 0000.0001)                 5.897800000000000E+03
(PID.TID 0000.0001)     ;
(PID.TID 0000.0001) humid_fac = /* humidity coef. in virtual temp. [(kg/kg)^-1] */
(PID.TID 0000.0001)                 6.060000000000000E-01
(PID.TID 0000.0001)     ;
(PID.TID 0000.0001) gamma_blk = /* adiabatic lapse rate [?] */
(PID.TID 0000.0001)                 1.000000000000000E-02
(PID.TID 0000.0001)     ;
(PID.TID 0000.0001) saltsat = /* reduction of Qsat over salty water [-] */
(PID.TID 0000.0001)                 9.800000000000000E-01
(PID.TID 0000.0001)     ;
(PID.TID 0000.0001) noNegativeEvap = /* prevent negative Evaporation */
(PID.TID 0000.0001)                   F
(PID.TID 0000.0001)     ;
(PID.TID 0000.0001) sstExtrapol = /* extrapolation coeff from lev. 1 & 2 to surf [-] */
(PID.TID 0000.0001)                 0.000000000000000E+00
(PID.TID 0000.0001)     ;
(PID.TID 0000.0001) cDrag_1 = /* coef used in drag calculation [?] */
(PID.TID 0000.0001)                 2.700000000000000E-03
(PID.TID 0000.0001)     ;
(PID.TID 0000.0001) cDrag_2 = /* coef used in drag calculation [?] */
(PID.TID 0000.0001)                 1.420000000000000E-04
(PID.TID 0000.0001)     ;
(PID.TID 0000.0001) cDrag_3 = /* coef used in drag calculation [?] */
(PID.TID 0000.0001)                 7.640000000000000E-05
(PID.TID 0000.0001)     ;
(PID.TID 0000.0001) cStanton_1 = /* coef used in Stanton number calculation [?] */
(PID.TID 0000.0001)                 3.270000000000000E-02
(PID.TID 0000.0001)     ;
(PID.TID 0000.0001) cStanton_2 = /* coef used in Stanton number calculation [?] */
(PID.TID 0000.0001)                 1.800000000000000E-02
(PID.TID 0000.0001)     ;
(PID.TID 0000.0001) cDalton = /* coef used in Dalton number calculation [?] */
(PID.TID 0000.0001)                 3.460000000000000E-02
(PID.TID 0000.0001)     ;
(PID.TID 0000.0001) exf_scal_BulkCdn= /* Drag coefficient scaling factor [-] */
(PID.TID 0000.0001)                 1.000000000000000E+00
(PID.TID 0000.0001)     ;
(PID.TID 0000.0001) zolmin = /* minimum stability parameter [?] */
(PID.TID 0000.0001)                -1.000000000000000E+02
(PID.TID 0000.0001)     ;
(PID.TID 0000.0001) psim_fac = /* coef used in turbulent fluxes calculation [-] */
(PID.TID 0000.0001)                 5.000000000000000E+00
(PID.TID 0000.0001)     ;
(PID.TID 0000.0001) zref =  /* reference height [ m ] */
(PID.TID 0000.0001)                 1.000000000000000E+01
(PID.TID 0000.0001)     ;
(PID.TID 0000.0001) hu =  /* height of mean wind [ m ] */
(PID.TID 0000.0001)                 1.000000000000000E+01
(PID.TID 0000.0001)     ;
(PID.TID 0000.0001) ht =  /* height of mean temperature [ m ] */
(PID.TID 0000.0001)                 2.000000000000000E+00
(PID.TID 0000.0001)     ;
(PID.TID 0000.0001) hq =  /* height of mean spec.humidity [ m ] */
(PID.TID 0000.0001)                 2.000000000000000E+00
(PID.TID 0000.0001)     ;
(PID.TID 0000.0001) uMin = /* minimum wind speed [m/s] */
(PID.TID 0000.0001)                 5.000000000000000E-01
(PID.TID 0000.0001)     ;
(PID.TID 0000.0001) useStabilityFct_overIce= /* transfert Coeffs over sea-ice depend on stability */
(PID.TID 0000.0001)                   F
(PID.TID 0000.0001)     ;
(PID.TID 0000.0001) exf_iceCd = /* drag coefficient over sea-ice (fixed) [-] */
(PID.TID 0000.0001)                 1.630000000000000E-03
(PID.TID 0000.0001)     ;
(PID.TID 0000.0001) exf_iceCe = /* transfert coeff. over sea-ice, for Evap (fixed) [-] */
(PID.TID 0000.0001)                 1.630000000000000E-03
(PID.TID 0000.0001)     ;
(PID.TID 0000.0001) exf_iceCh = /* transfert coeff. over sea-ice, Sens.Heat.(fixed)[-] */
(PID.TID 0000.0001)                 1.630000000000000E-03
(PID.TID 0000.0001)     ;
(PID.TID 0000.0001) exf_albedo =  /* Sea-water albedo [-] */
(PID.TID 0000.0001)                 1.500000000000000E-01
(PID.TID 0000.0001)     ;
(PID.TID 0000.0001) useExfZenAlbedo = /* Sea-water albedo varies with zenith angle */
(PID.TID 0000.0001)                   F
(PID.TID 0000.0001)     ;
(PID.TID 0000.0001) select_ZenAlbedo = /* Sea-water albedo computation method */
(PID.TID 0000.0001)                       0
(PID.TID 0000.0001)     ;
(PID.TID 0000.0001) useExfZenIncoming = /* compute incoming solar radiation */
(PID.TID 0000.0001)                   F
(PID.TID 0000.0001)     ;
(PID.TID 0000.0001) ocean_emissivity = /* longwave ocean-surface emissivity [-] */
(PID.TID 0000.0001)                 9.700176366843034E-01
(PID.TID 0000.0001)     ;
(PID.TID 0000.0001) ice_emissivity = /* longwave seaice emissivity [-] */
(PID.TID 0000.0001)                 9.500000000000000E-01
(PID.TID 0000.0001)     ;
(PID.TID 0000.0001) snow_emissivity = /* longwave snow  emissivity [-] */
(PID.TID 0000.0001)                 9.500000000000000E-01
(PID.TID 0000.0001)     ;
(PID.TID 0000.0001) 
(PID.TID 0000.0001)  EXF main CPP flags:
(PID.TID 0000.0001) 
(PID.TID 0000.0001) // USE_EXF_INTERPOLATION:          NOT defined
(PID.TID 0000.0001) // ALLOW_ATM_TEMP:                     defined
(PID.TID 0000.0001) // ALLOW_ATM_WIND (useAtmWind):        defined
(PID.TID 0000.0001) // ALLOW_DOWNWARD_RADIATION:           defined
(PID.TID 0000.0001) // ALLOW_BULKFORMULAE:                 defined
(PID.TID 0000.0001) 
(PID.TID 0000.0001)    Net shortwave flux forcing starts at                0.
(PID.TID 0000.0001)    Net shortwave flux forcing period is                0.
(PID.TID 0000.0001)    Net shortwave flux forcing is read from file:
(PID.TID 0000.0001)    >>    <<
(PID.TID 0000.0001) 
(PID.TID 0000.0001)    Zonal wind forcing starts at                          0.
(PID.TID 0000.0001)    Zonal wind forcing period is                          0.
(PID.TID 0000.0001)    Zonal wind forcing is read from file:
(PID.TID 0000.0001)    >>    <<
(PID.TID 0000.0001) 
(PID.TID 0000.0001)    Meridional wind forcing starts at                     0.
(PID.TID 0000.0001)    Meridional wind forcing period is                     0.
(PID.TID 0000.0001)    Meridional wind forcing is read from file:
(PID.TID 0000.0001)    >>    <<
(PID.TID 0000.0001) 
(PID.TID 0000.0001)    Atmospheric temperature starts at                     0.
(PID.TID 0000.0001)    Atmospheric temperature period is                     0.
(PID.TID 0000.0001)    Atmospheric temperature is read from file:
(PID.TID 0000.0001)    >>    <<
(PID.TID 0000.0001) 
(PID.TID 0000.0001)    Atmospheric specific humidity starts at               0.
(PID.TID 0000.0001)    Atmospheric specific humidity period is               0.
(PID.TID 0000.0001)    Atmospheric specific humidity is read from file:
(PID.TID 0000.0001)    >>    <<
(PID.TID 0000.0001) 
(PID.TID 0000.0001)    Net longwave flux forcing starts at                 0.
(PID.TID 0000.0001)    Net longwave flux forcing period is                 0.
(PID.TID 0000.0001)    Net longwave flux forcing is read from file:
(PID.TID 0000.0001)    >>    <<
(PID.TID 0000.0001) 
(PID.TID 0000.0001)    Precipitation data set starts at                      0.
(PID.TID 0000.0001)    Precipitation data period is                          0.
(PID.TID 0000.0001)    Precipitation data is read from file:
(PID.TID 0000.0001)    >>    <<
(PID.TID 0000.0001) 
(PID.TID 0000.0001) // EXF_READ_EVAP:                  NOT defined
(PID.TID 0000.0001) 
(PID.TID 0000.0001) // ALLOW_RUNOFF:                       defined
(PID.TID 0000.0001)    Runoff starts at               0.
(PID.TID 0000.0001)    Runoff period is               0.
(PID.TID 0000.0001)    Runoff is read from file:
(PID.TID 0000.0001)    >>    <<
(PID.TID 0000.0001) // ALLOW_RUNOFTEMP:                NOT defined
(PID.TID 0000.0001) 
(PID.TID 0000.0001)    Downward shortwave flux forcing starts at                0.
(PID.TID 0000.0001)    Downward shortwave flux forcing period is                0.
(PID.TID 0000.0001)    Downward shortwave flux forcing is read from file:
(PID.TID 0000.0001)    >>    <<
(PID.TID 0000.0001) 
(PID.TID 0000.0001)    Downward longwave flux forcing starts at                 0.
(PID.TID 0000.0001)    Downward longwave flux forcing period is                 0.
(PID.TID 0000.0001)    Downward longwave flux forcing is read from file:
(PID.TID 0000.0001)    >>    <<
(PID.TID 0000.0001) 
(PID.TID 0000.0001)    Atmospheric pressure forcing starts at                0.
(PID.TID 0000.0001)    Atmospheric pressure forcing period is                0.
(PID.TID 0000.0001)    Atmospheric pressureforcing is read from file:
(PID.TID 0000.0001)    >>    <<
(PID.TID 0000.0001) 
(PID.TID 0000.0001) // =======================================================
(PID.TID 0000.0001) // External forcing (EXF) climatology configuration :
(PID.TID 0000.0001) // =======================================================
(PID.TID 0000.0001) 
(PID.TID 0000.0001) // ALLOW_CLIMSST_RELAXATION:       NOT defined
(PID.TID 0000.0001) // ALLOW_CLIMSSS_RELAXATION:       NOT defined
(PID.TID 0000.0001) 
(PID.TID 0000.0001) // =======================================================
(PID.TID 0000.0001) // External forcing (EXF) configuration  >>> END <<<
(PID.TID 0000.0001) // =======================================================
(PID.TID 0000.0001) 
(PID.TID 0000.0001) GUD_RANDOM_INIT: port_rand            11231   0.4077530000000000
(PID.TID 0000.0001)  OPEN_COPY_DATA_FILE: opening file data.traits
(PID.TID 0000.0001) // =======================================================
(PID.TID 0000.0001) // Parameter file "data.traits"
(PID.TID 0000.0001) // =======================================================
(PID.TID 0000.0001) > &GUD_TRAITS
(PID.TID 0000.0001) > INHIBCOEF_GEID= 0.0, 0.0, 1.2, 1.2, 0.0, 1.2, 1.2, 0.0, 1.2, 0.0, 0.0, 0.0, 0.0, 0.0, 0.0, 0.0, 0.0, 1.2, 0.0, 1.2, 0.0,
(PID.TID 0000.0001) >                 0.0, 0.0, 0.0, 0.0, 0.0, 1.2, 0.0, 0.0, 0.0, 0.0, 1.2, 0.0, 0.0, 0.0, 0.0, 0.0, 0.0, 1.2, 0.0, 0.0, 0.0,
(PID.TID 0000.0001) >                 0.0, 1.2, 0.0, 0.0, 0.0, 0.0, 0.0, 0.0, 0.0, 1.2, 0.0, 0.0, 0.0, 0.0, 0.0, 0.0, 0.0, 0.0, 0.0, 0.0, 1.2,
(PID.TID 0000.0001) >                 1.2, 0.0, 0.0, 0.0, 0.0, 0.0, 0.0, 0.0, 1.2, 0.0, 1.2, 1.2, 1.2, 0.0, 0.0,
(PID.TID 0000.0001) > /
(PID.TID 0000.0001) 
(PID.TID 0000.0001)  GUD_INIT_FIXED: opening data.traits
(PID.TID 0000.0001)  OPEN_COPY_DATA_FILE: opening file data.traits
(PID.TID 0000.0001) // =======================================================
(PID.TID 0000.0001) // Parameter file "data.traits"
(PID.TID 0000.0001) // =======================================================
(PID.TID 0000.0001) > &GUD_TRAITS
(PID.TID 0000.0001) > INHIBCOEF_GEID= 0.0, 0.0, 1.2, 1.2, 0.0, 1.2, 1.2, 0.0, 1.2, 0.0, 0.0, 0.0, 0.0, 0.0, 0.0, 0.0, 0.0, 1.2, 0.0, 1.2, 0.0,
(PID.TID 0000.0001) >                 0.0, 0.0, 0.0, 0.0, 0.0, 1.2, 0.0, 0.0, 0.0, 0.0, 1.2, 0.0, 0.0, 0.0, 0.0, 0.0, 0.0, 1.2, 0.0, 0.0, 0.0,
(PID.TID 0000.0001) >                 0.0, 1.2, 0.0, 0.0, 0.0, 0.0, 0.0, 0.0, 0.0, 1.2, 0.0, 0.0, 0.0, 0.0, 0.0, 0.0, 0.0, 0.0, 0.0, 0.0, 1.2,
(PID.TID 0000.0001) >                 1.2, 0.0, 0.0, 0.0, 0.0, 0.0, 0.0, 0.0, 1.2, 0.0, 1.2, 1.2, 1.2, 0.0, 0.0,
(PID.TID 0000.0001) > /
(PID.TID 0000.0001) 
(PID.TID 0000.0001)  ===================================
(PID.TID 0000.0001) ------------------------------------------------------------
(PID.TID 0000.0001) DIAGNOSTICS_SET_LEVELS: done
(PID.TID 0000.0001)  Total Nb of available Diagnostics: ndiagt=  1411
(PID.TID 0000.0001)  write list of available Diagnostics to file: available_diagnostics.log
(PID.TID 0000.0001) SETDIAG: Allocate 35 x  1 Levels for Diagnostic #   142 TRAC01
(PID.TID 0000.0001) SETDIAG: Allocate 35 x  1 Levels for Diagnostic #   154 TRAC02
(PID.TID 0000.0001) SETDIAG: Allocate 35 x  1 Levels for Diagnostic #   166 TRAC03
(PID.TID 0000.0001) SETDIAG: Allocate 35 x  1 Levels for Diagnostic #   178 TRAC04
(PID.TID 0000.0001) SETDIAG: Allocate 35 x  1 Levels for Diagnostic #   190 TRAC05
(PID.TID 0000.0001) SETDIAG: Allocate 35 x  1 Levels for Diagnostic #   202 TRAC06
(PID.TID 0000.0001) SETDIAG: Allocate 35 x  1 Levels for Diagnostic #   214 TRAC07
(PID.TID 0000.0001) SETDIAG: Allocate 35 x  1 Levels for Diagnostic #   226 TRAC08
(PID.TID 0000.0001) SETDIAG: Allocate 35 x  1 Levels for Diagnostic #   238 TRAC09
(PID.TID 0000.0001) SETDIAG: Allocate 35 x  1 Levels for Diagnostic #   250 TRAC10
(PID.TID 0000.0001) SETDIAG: Allocate 35 x  1 Levels for Diagnostic #   262 TRAC11
(PID.TID 0000.0001) SETDIAG: Allocate 35 x  1 Levels for Diagnostic #   274 TRAC12
(PID.TID 0000.0001) SETDIAG: Allocate 35 x  1 Levels for Diagnostic #   286 TRAC13
(PID.TID 0000.0001) SETDIAG: Allocate 35 x  1 Levels for Diagnostic #   298 TRAC14
(PID.TID 0000.0001) SETDIAG: Allocate 35 x  1 Levels for Diagnostic #   310 TRAC15
(PID.TID 0000.0001) SETDIAG: Allocate 35 x  1 Levels for Diagnostic #   322 TRAC16
(PID.TID 0000.0001) SETDIAG: Allocate 35 x  1 Levels for Diagnostic #   334 TRAC17
(PID.TID 0000.0001) SETDIAG: Allocate 35 x  1 Levels for Diagnostic #   346 TRAC18
(PID.TID 0000.0001) SETDIAG: Allocate 35 x  1 Levels for Diagnostic #   358 TRAC19
(PID.TID 0000.0001) SETDIAG: Allocate 35 x  1 Levels for Diagnostic #   370 TRAC20
(PID.TID 0000.0001) SETDIAG: Allocate 35 x  1 Levels for Diagnostic #   382 TRAC21
(PID.TID 0000.0001) SETDIAG: Allocate 35 x  1 Levels for Diagnostic #   394 TRAC22
(PID.TID 0000.0001) SETDIAG: Allocate 35 x  1 Levels for Diagnostic #   406 TRAC23
(PID.TID 0000.0001) SETDIAG: Allocate 35 x  1 Levels for Diagnostic #   418 TRAC24
(PID.TID 0000.0001) SETDIAG: Allocate 35 x  1 Levels for Diagnostic #   430 TRAC25
(PID.TID 0000.0001) SETDIAG: Allocate 35 x  1 Levels for Diagnostic #   442 TRAC26
(PID.TID 0000.0001) SETDIAG: Allocate 35 x  1 Levels for Diagnostic #   454 TRAC27
(PID.TID 0000.0001) SETDIAG: Allocate 35 x  1 Levels for Diagnostic #   466 TRAC28
(PID.TID 0000.0001) SETDIAG: Allocate 35 x  1 Levels for Diagnostic #   478 TRAC29
(PID.TID 0000.0001) SETDIAG: Allocate 35 x  1 Levels for Diagnostic #   490 TRAC30
(PID.TID 0000.0001) SETDIAG: Allocate 35 x  1 Levels for Diagnostic #   502 TRAC31
(PID.TID 0000.0001) SETDIAG: Allocate 35 x  1 Levels for Diagnostic #   514 TRAC32
(PID.TID 0000.0001) SETDIAG: Allocate 35 x  1 Levels for Diagnostic #   526 TRAC33
(PID.TID 0000.0001) SETDIAG: Allocate 35 x  1 Levels for Diagnostic #   538 TRAC34
(PID.TID 0000.0001) SETDIAG: Allocate 35 x  1 Levels for Diagnostic #   550 TRAC35
(PID.TID 0000.0001) SETDIAG: Allocate 35 x  1 Levels for Diagnostic #   562 TRAC36
(PID.TID 0000.0001) SETDIAG: Allocate 35 x  1 Levels for Diagnostic #   574 TRAC37
(PID.TID 0000.0001) SETDIAG: Allocate 35 x  1 Levels for Diagnostic #   586 TRAC38
(PID.TID 0000.0001) SETDIAG: Allocate 35 x  1 Levels for Diagnostic #   598 TRAC39
(PID.TID 0000.0001) SETDIAG: Allocate 35 x  1 Levels for Diagnostic #   610 TRAC40
(PID.TID 0000.0001) SETDIAG: Allocate 35 x  1 Levels for Diagnostic #   622 TRAC41
(PID.TID 0000.0001) SETDIAG: Allocate 35 x  1 Levels for Diagnostic #   634 TRAC42
(PID.TID 0000.0001) SETDIAG: Allocate 35 x  1 Levels for Diagnostic #   646 TRAC43
(PID.TID 0000.0001) SETDIAG: Allocate 35 x  1 Levels for Diagnostic #   658 TRAC44
(PID.TID 0000.0001) SETDIAG: Allocate 35 x  1 Levels for Diagnostic #   670 TRAC45
(PID.TID 0000.0001) SETDIAG: Allocate 35 x  1 Levels for Diagnostic #   682 TRAC46
(PID.TID 0000.0001) SETDIAG: Allocate 35 x  1 Levels for Diagnostic #   694 TRAC47
(PID.TID 0000.0001) SETDIAG: Allocate 35 x  1 Levels for Diagnostic #   706 TRAC48
(PID.TID 0000.0001) SETDIAG: Allocate 35 x  1 Levels for Diagnostic #   718 TRAC49
(PID.TID 0000.0001) SETDIAG: Allocate 35 x  1 Levels for Diagnostic #   730 TRAC50
(PID.TID 0000.0001) SETDIAG: Allocate 35 x  1 Levels for Diagnostic #   742 TRAC51
(PID.TID 0000.0001) SETDIAG: Allocate 35 x  1 Levels for Diagnostic #   754 TRAC52
(PID.TID 0000.0001) SETDIAG: Allocate 35 x  1 Levels for Diagnostic #   766 TRAC53
(PID.TID 0000.0001) SETDIAG: Allocate 35 x  1 Levels for Diagnostic #   778 TRAC54
(PID.TID 0000.0001) SETDIAG: Allocate 35 x  1 Levels for Diagnostic #   790 TRAC55
(PID.TID 0000.0001) SETDIAG: Allocate 35 x  1 Levels for Diagnostic #   802 TRAC56
(PID.TID 0000.0001) SETDIAG: Allocate 35 x  1 Levels for Diagnostic #   814 TRAC57
(PID.TID 0000.0001) SETDIAG: Allocate 35 x  1 Levels for Diagnostic #   826 TRAC58
(PID.TID 0000.0001) SETDIAG: Allocate 35 x  1 Levels for Diagnostic #   838 TRAC59
(PID.TID 0000.0001) SETDIAG: Allocate 35 x  1 Levels for Diagnostic #   850 TRAC60
(PID.TID 0000.0001) SETDIAG: Allocate 35 x  1 Levels for Diagnostic #   862 TRAC61
(PID.TID 0000.0001) SETDIAG: Allocate 35 x  1 Levels for Diagnostic #   874 TRAC62
(PID.TID 0000.0001) SETDIAG: Allocate 35 x  1 Levels for Diagnostic #   886 TRAC63
(PID.TID 0000.0001) SETDIAG: Allocate 35 x  1 Levels for Diagnostic #   898 TRAC64
(PID.TID 0000.0001) SETDIAG: Allocate 35 x  1 Levels for Diagnostic #   910 TRAC65
(PID.TID 0000.0001) SETDIAG: Allocate 35 x  1 Levels for Diagnostic #   922 TRAC66
(PID.TID 0000.0001) SETDIAG: Allocate 35 x  1 Levels for Diagnostic #   934 TRAC67
(PID.TID 0000.0001) SETDIAG: Allocate 35 x  1 Levels for Diagnostic #   946 TRAC68
(PID.TID 0000.0001) SETDIAG: Allocate 35 x  1 Levels for Diagnostic #   958 TRAC69
(PID.TID 0000.0001) SETDIAG: Allocate 35 x  1 Levels for Diagnostic #   970 TRAC70
(PID.TID 0000.0001) SETDIAG: Allocate 35 x  1 Levels for Diagnostic #   982 TRAC71
(PID.TID 0000.0001) SETDIAG: Allocate 35 x  1 Levels for Diagnostic #   994 TRAC72
(PID.TID 0000.0001) SETDIAG: Allocate 35 x  1 Levels for Diagnostic #  1006 TRAC73
(PID.TID 0000.0001) SETDIAG: Allocate 35 x  1 Levels for Diagnostic #  1018 TRAC74
(PID.TID 0000.0001) SETDIAG: Allocate 35 x  1 Levels for Diagnostic #  1030 TRAC75
(PID.TID 0000.0001) SETDIAG: Allocate 35 x  1 Levels for Diagnostic #  1042 TRAC76
(PID.TID 0000.0001) SETDIAG: Allocate 35 x  1 Levels for Diagnostic #  1054 TRAC77
(PID.TID 0000.0001) SETDIAG: Allocate 35 x  1 Levels for Diagnostic #  1066 TRAC78
(PID.TID 0000.0001) SETDIAG: Allocate 35 x  1 Levels for Diagnostic #  1078 TRAC79
(PID.TID 0000.0001) SETDIAG: Allocate 35 x  1 Levels for Diagnostic #  1090 TRAC80
(PID.TID 0000.0001) SETDIAG: Allocate 35 x  1 Levels for Diagnostic #  1102 TRAC81
(PID.TID 0000.0001) SETDIAG: Allocate 35 x  1 Levels for Diagnostic #  1114 TRAC82
(PID.TID 0000.0001) SETDIAG: Allocate 35 x  1 Levels for Diagnostic #  1126 TRAC83
(PID.TID 0000.0001) SETDIAG: Allocate 35 x  1 Levels for Diagnostic #  1138 TRAC84
(PID.TID 0000.0001) SETDIAG: Allocate 35 x  1 Levels for Diagnostic #  1150 TRAC85
(PID.TID 0000.0001) SETDIAG: Allocate 35 x  1 Levels for Diagnostic #  1162 TRAC86
(PID.TID 0000.0001) SETDIAG: Allocate 35 x  1 Levels for Diagnostic #  1174 TRAC87
(PID.TID 0000.0001) SETDIAG: Allocate 35 x  1 Levels for Diagnostic #  1186 TRAC88
(PID.TID 0000.0001) SETDIAG: Allocate 35 x  1 Levels for Diagnostic #  1198 TRAC89
(PID.TID 0000.0001) SETDIAG: Allocate 35 x  1 Levels for Diagnostic #  1210 TRAC90
(PID.TID 0000.0001) SETDIAG: Allocate 35 x  1 Levels for Diagnostic #  1222 TRAC91
(PID.TID 0000.0001) SETDIAG: Allocate 35 x  1 Levels for Diagnostic #  1234 TRAC92
(PID.TID 0000.0001) SETDIAG: Allocate 35 x  1 Levels for Diagnostic #  1246 TRAC93
(PID.TID 0000.0001) SETDIAG: Allocate 35 x  1 Levels for Diagnostic #  1258 TRAC94
(PID.TID 0000.0001) SETDIAG: Allocate 35 x  1 Levels for Diagnostic #  1270 TRAC95
(PID.TID 0000.0001) SETDIAG: Allocate 35 x  1 Levels for Diagnostic #  1282 TRAC96
(PID.TID 0000.0001) SETDIAG: Allocate 35 x  1 Levels for Diagnostic #  1294 TRAC97
(PID.TID 0000.0001) SETDIAG: Allocate 35 x  1 Levels for Diagnostic #  1314 PAR01
(PID.TID 0000.0001) SETDIAG: Allocate 35 x  1 Levels for Diagnostic #  1313 PARF
(PID.TID 0000.0001) SETDIAG: Allocate 35 x  1 Levels for Diagnostic #  1310 atten
(PID.TID 0000.0001) SETDIAG: Allocate 35 x  1 Levels for Diagnostic #  1312 surfPAR
(PID.TID 0000.0001) SETDIAG: Allocate 35 x  1 Levels for Diagnostic #  1311 exfPAR
(PID.TID 0000.0001)   space allocated for all diagnostics:    3570 levels
(PID.TID 0000.0001) DIAGNOSTICS_SET_POINTERS: Set levels for Outp.Stream: gud
(PID.TID 0000.0001)  Levels:       1.   2.   3.   4.   5.   6.   7.   8.   9.  10.  11.  12.  13.  14.  15.  16.  17.  18.  19.  20.
(PID.TID 0000.0001)  Levels:      21.  22.  23.  24.  25.  26.  27.  28.  29.  30.  31.  32.  33.  34.  35.
(PID.TID 0000.0001) DIAGNOSTICS_SET_POINTERS: done
(PID.TID 0000.0001) ------------------------------------------------------------
(PID.TID 0000.0001) DIAGSTATS_SET_REGIONS: define no region
(PID.TID 0000.0001) ------------------------------------------------------------
(PID.TID 0000.0001)   space allocated for all stats-diags:       0 levels
(PID.TID 0000.0001) DIAGSTATS_SET_POINTERS: done
(PID.TID 0000.0001) ------------------------------------------------------------
(PID.TID 0000.0001) %MON fCori_max                    =  -4.3855676645210050E-05
(PID.TID 0000.0001) %MON fCori_min                    =  -4.3855676645210050E-05
(PID.TID 0000.0001) %MON fCori_mean                   =  -4.3855676645210050E-05
(PID.TID 0000.0001) %MON fCori_sd                     =   0.0000000000000000E+00
(PID.TID 0000.0001) %MON fCoriG_max                   =  -4.5067801836624727E-05
(PID.TID 0000.0001) %MON fCoriG_min                   =  -4.5067801836624727E-05
(PID.TID 0000.0001) %MON fCoriG_mean                  =  -4.5067801836624727E-05
(PID.TID 0000.0001) %MON fCoriG_sd                    =   0.0000000000000000E+00
(PID.TID 0000.0001) %MON fCoriCos_max                 =   1.3909243610206993E-04
(PID.TID 0000.0001) %MON fCoriCos_min                 =   1.3909243610206993E-04
(PID.TID 0000.0001) %MON fCoriCos_mean                =   1.3909243610206993E-04
(PID.TID 0000.0001) %MON fCoriCos_sd                  =   0.0000000000000000E+00
(PID.TID 0000.0001) INI_CG2D: CG2D normalisation factor =  2.7288038648017932E-04
(PID.TID 0000.0001) 
(PID.TID 0000.0001) // =======================================================
[...]
 Computing Diagnostic #    322  TRAC16       Counter:       1   Parms: SMR     MR      
 Computing Diagnostic #    334  TRAC17       Counter:       1   Parms: SMR     MR      
 Computing Diagnostic #    346  TRAC18       Counter:       1   Parms: SMR     MR      
 Computing Diagnostic #    358  TRAC19       Counter:       1   Parms: SMR     MR      
 Computing Diagnostic #    370  TRAC20       Counter:       1   Parms: SMR     MR      
 Computing Diagnostic #    382  TRAC21       Counter:       1   Parms: SMR     MR      
 Computing Diagnostic #    394  TRAC22       Counter:       1   Parms: SMR     MR      
 Computing Diagnostic #    406  TRAC23       Counter:       1   Parms: SMR     MR      
 Computing Diagnostic #    418  TRAC24       Counter:       1   Parms: SMR     MR      
 Computing Diagnostic #    430  TRAC25       Counter:       1   Parms: SMR     MR      
 Computing Diagnostic #    442  TRAC26       Counter:       1   Parms: SMR     MR      
 Computing Diagnostic #    454  TRAC27       Counter:       1   Parms: SMR     MR      
 Computing Diagnostic #    466  TRAC28       Counter:       1   Parms: SMR     MR      
 Computing Diagnostic #    478  TRAC29       Counter:       1   Parms: SMR     MR      
 Computing Diagnostic #    490  TRAC30       Counter:       1   Parms: SMR     MR      
 Computing Diagnostic #    502  TRAC31       Counter:       1   Parms: SMR     MR      
 Computing Diagnostic #    514  TRAC32       Counter:       1   Parms: SMR     MR      
 Computing Diagnostic #    526  TRAC33       Counter:       1   Parms: SMR     MR      
 Computing Diagnostic #    538  TRAC34       Counter:       1   Parms: SMR     MR      
 Computing Diagnostic #    550  TRAC35       Counter:       1   Parms: SMR     MR      
 Computing Diagnostic #    562  TRAC36       Counter:       1   Parms: SMR     MR      
 Computing Diagnostic #    574  TRAC37       Counter:       1   Parms: SMR     MR      
 Computing Diagnostic #    586  TRAC38       Counter:       1   Parms: SMR     MR      
 Computing Diagnostic #    598  TRAC39       Counter:       1   Parms: SMR     MR      
 Computing Diagnostic #    610  TRAC40       Counter:       1   Parms: SMR     MR      
 Computing Diagnostic #    622  TRAC41       Counter:       1   Parms: SMR     MR      
 Computing Diagnostic #    634  TRAC42       Counter:       1   Parms: SMR     MR      
 Computing Diagnostic #    646  TRAC43       Counter:       1   Parms: SMR     MR      
 Computing Diagnostic #    658  TRAC44       Counter:       1   Parms: SMR     MR      
 Computing Diagnostic #    670  TRAC45       Counter:       1   Parms: SMR     MR      
 Computing Diagnostic #    682  TRAC46       Counter:       1   Parms: SMR     MR      
 Computing Diagnostic #    694  TRAC47       Counter:       1   Parms: SMR     MR      
 Computing Diagnostic #    706  TRAC48       Counter:       1   Parms: SMR     MR      
 Computing Diagnostic #    718  TRAC49       Counter:       1   Parms: SMR     MR      
 Computing Diagnostic #    730  TRAC50       Counter:       1   Parms: SMR     MR      
 Computing Diagnostic #    742  TRAC51       Counter:       1   Parms: SMR     MR      
 Computing Diagnostic #    754  TRAC52       Counter:       1   Parms: SMR     MR      
 Computing Diagnostic #    766  TRAC53       Counter:       1   Parms: SMR     MR      
 Computing Diagnostic #    778  TRAC54       Counter:       1   Parms: SMR     MR      
 Computing Diagnostic #    790  TRAC55       Counter:       1   Parms: SMR     MR      
 Computing Diagnostic #    802  TRAC56       Counter:       1   Parms: SMR     MR      
 Computing Diagnostic #    814  TRAC57       Counter:       1   Parms: SMR     MR      
 Computing Diagnostic #    826  TRAC58       Counter:       1   Parms: SMR     MR      
 Computing Diagnostic #    838  TRAC59       Counter:       1   Parms: SMR     MR      
 Computing Diagnostic #    850  TRAC60       Counter:       1   Parms: SMR     MR      
 Computing Diagnostic #    862  TRAC61       Counter:       1   Parms: SMR     MR      
 Computing Diagnostic #    874  TRAC62       Counter:       1   Parms: SMR     MR      
 Computing Diagnostic #    886  TRAC63       Counter:       1   Parms: SMR     MR      
 Computing Diagnostic #    898  TRAC64       Counter:       1   Parms: SMR     MR      
 Computing Diagnostic #    910  TRAC65       Counter:       1   Parms: SMR     MR      
 Computing Diagnostic #    922  TRAC66       Counter:       1   Parms: SMR     MR      
 Computing Diagnostic #    934  TRAC67       Counter:       1   Parms: SMR     MR      
 Computing Diagnostic #    946  TRAC68       Counter:       1   Parms: SMR     MR      
 Computing Diagnostic #    958  TRAC69       Counter:       1   Parms: SMR     MR      
 Computing Diagnostic #    970  TRAC70       Counter:       1   Parms: SMR     MR      
 Computing Diagnostic #    982  TRAC71       Counter:       1   Parms: SMR     MR      
 Computing Diagnostic #    994  TRAC72       Counter:       1   Parms: SMR     MR      
 Computing Diagnostic #   1006  TRAC73       Counter:       1   Parms: SMR     MR      
 Computing Diagnostic #   1018  TRAC74       Counter:       1   Parms: SMR     MR      
 Computing Diagnostic #   1030  TRAC75       Counter:       1   Parms: SMR     MR      
 Computing Diagnostic #   1042  TRAC76       Counter:       1   Parms: SMR     MR      
 Computing Diagnostic #   1054  TRAC77       Counter:       1   Parms: SMR     MR      
 Computing Diagnostic #   1066  TRAC78       Counter:       1   Parms: SMR     MR      
 Computing Diagnostic #   1078  TRAC79       Counter:       1   Parms: SMR     MR      
 Computing Diagnostic #   1090  TRAC80       Counter:       1   Parms: SMR     MR      
 Computing Diagnostic #   1102  TRAC81       Counter:       1   Parms: SMR     MR      
 Computing Diagnostic #   1114  TRAC82       Counter:       1   Parms: SMR     MR      
 Computing Diagnostic #   1126  TRAC83       Counter:       1   Parms: SMR     MR      
 Computing Diagnostic #   1138  TRAC84       Counter:       1   Parms: SMR     MR      
 Computing Diagnostic #   1150  TRAC85       Counter:       1   Parms: SMR     MR      
 Computing Diagnostic #   1162  TRAC86       Counter:       1   Parms: SMR     MR      
 Computing Diagnostic #   1174  TRAC87       Counter:       1   Parms: SMR     MR      
 Computing Diagnostic #   1186  TRAC88       Counter:       1   Parms: SMR     MR      
 Computing Diagnostic #   1198  TRAC89       Counter:       1   Parms: SMR     MR      
 Computing Diagnostic #   1210  TRAC90       Counter:       1   Parms: SMR     MR      
 Computing Diagnostic #   1222  TRAC91       Counter:       1   Parms: SMR     MR      
 Computing Diagnostic #   1234  TRAC92       Counter:       1   Parms: SMR     MR      
 Computing Diagnostic #   1246  TRAC93       Counter:       1   Parms: SMR     MR      
 Computing Diagnostic #   1258  TRAC94       Counter:       1   Parms: SMR     MR      
 Computing Diagnostic #   1270  TRAC95       Counter:       1   Parms: SMR     MR      
 Computing Diagnostic #   1282  TRAC96       Counter:       1   Parms: SMR     MR      
 Computing Diagnostic #   1294  TRAC97       Counter:       1   Parms: SMR     MR      
 Computing Diagnostic #   1314  PAR01        Counter:       1   Parms: SM P    MR      
 Computing Diagnostic #   1313  PARF         Counter:       1   Parms: SM P    MR      
 Computing Diagnostic #   1310  atten        Counter:       1   Parms: SM P    MR      
 Computing Diagnostic #   1312  surfPAR      Counter:       1   Parms: SM P    MR      
 Computing Diagnostic #   1311  exfPAR       Counter:       1   Parms: SM P    MR      
 prec           1          64
(PID.TID 0000.0001) %CHECKPOINT         4 ckptA
(PID.TID 0000.0001)   Seconds in section "ALL                    [THE_MODEL_MAIN]":
(PID.TID 0000.0001)           User time:   1.7900000000000000
(PID.TID 0000.0001)         System time:   4.9999999999999996E-002
(PID.TID 0000.0001)     Wall clock time:   1.8854360580444336
(PID.TID 0000.0001)          No. starts:           1
(PID.TID 0000.0001)           No. stops:           1
(PID.TID 0000.0001)   Seconds in section "INITIALISE_FIXED       [THE_MODEL_MAIN]":
(PID.TID 0000.0001)           User time:  0.66000000000000003
(PID.TID 0000.0001)         System time:   1.9999999999999997E-002
(PID.TID 0000.0001)     Wall clock time:  0.69032502174377441
(PID.TID 0000.0001)          No. starts:           1
(PID.TID 0000.0001)           No. stops:           1
(PID.TID 0000.0001)   Seconds in section "THE_MAIN_LOOP          [THE_MODEL_MAIN]":
(PID.TID 0000.0001)           User time:   1.1200000000000001
(PID.TID 0000.0001)         System time:   2.9999999999999999E-002
(PID.TID 0000.0001)     Wall clock time:   1.1926419734954834
(PID.TID 0000.0001)          No. starts:           1
(PID.TID 0000.0001)           No. stops:           1
(PID.TID 0000.0001)   Seconds in section "INITIALISE_VARIA    [THE_MAIN_LOOP]":
(PID.TID 0000.0001)           User time:   5.9999999999999942E-002
(PID.TID 0000.0001)         System time:   0.0000000000000000
(PID.TID 0000.0001)     Wall clock time:   7.0460081100463867E-002
(PID.TID 0000.0001)          No. starts:           1
(PID.TID 0000.0001)           No. stops:           1
(PID.TID 0000.0001)   Seconds in section "MAIN LOOP           [THE_MAIN_LOOP]":
(PID.TID 0000.0001)           User time:   1.0600000000000001
(PID.TID 0000.0001)         System time:   2.9999999999999999E-002
(PID.TID 0000.0001)     Wall clock time:   1.1221518516540527
(PID.TID 0000.0001)          No. starts:           1
(PID.TID 0000.0001)           No. stops:           1
(PID.TID 0000.0001)   Seconds in section "MAIN_DO_LOOP        [THE_MAIN_LOOP]":
(PID.TID 0000.0001)           User time:   1.0600000000000001
(PID.TID 0000.0001)         System time:   2.9999999999999999E-002
(PID.TID 0000.0001)     Wall clock time:   1.1221048831939697
(PID.TID 0000.0001)          No. starts:           4
(PID.TID 0000.0001)           No. stops:           4
(PID.TID 0000.0001)   Seconds in section "FORWARD_STEP        [MAIN_DO_LOOP]":
(PID.TID 0000.0001)           User time:   1.0600000000000001
(PID.TID 0000.0001)         System time:   2.9999999999999999E-002
(PID.TID 0000.0001)     Wall clock time:   1.1220290660858154
(PID.TID 0000.0001)          No. starts:           4
(PID.TID 0000.0001)           No. stops:           4
(PID.TID 0000.0001)   Seconds in section "DO_STATEVARS_DIAGS  [FORWARD_STEP]":
(PID.TID 0000.0001)           User time:   1.0000000000000009E-002
(PID.TID 0000.0001)         System time:   0.0000000000000000
(PID.TID 0000.0001)     Wall clock time:   5.0008296966552734E-003
(PID.TID 0000.0001)          No. starts:           8
(PID.TID 0000.0001)           No. stops:           8
(PID.TID 0000.0001)   Seconds in section "LOAD_FIELDS_DRIVER  [FORWARD_STEP]":
(PID.TID 0000.0001)           User time:   0.0000000000000000
(PID.TID 0000.0001)         System time:   0.0000000000000000
(PID.TID 0000.0001)     Wall clock time:   3.4563541412353516E-003
(PID.TID 0000.0001)          No. starts:           4
(PID.TID 0000.0001)           No. stops:           4
(PID.TID 0000.0001)   Seconds in section "EXF_GETFORCING     [LOAD_FLDS_DRIVER]":
(PID.TID 0000.0001)           User time:   0.0000000000000000
(PID.TID 0000.0001)         System time:   0.0000000000000000
(PID.TID 0000.0001)     Wall clock time:   1.7573833465576172E-003
(PID.TID 0000.0001)          No. starts:           4
(PID.TID 0000.0001)           No. stops:           4
(PID.TID 0000.0001)   Seconds in section "EXTERNAL_FLDS_LOAD [LOAD_FLDS_DRIVER]":
(PID.TID 0000.0001)           User time:   0.0000000000000000
(PID.TID 0000.0001)         System time:   0.0000000000000000
(PID.TID 0000.0001)     Wall clock time:   5.1164627075195312E-004
(PID.TID 0000.0001)          No. starts:           4
(PID.TID 0000.0001)           No. stops:           4
(PID.TID 0000.0001)   Seconds in section "DO_ATMOSPHERIC_PHYS [FORWARD_STEP]":
(PID.TID 0000.0001)           User time:   0.0000000000000000
(PID.TID 0000.0001)         System time:   0.0000000000000000
(PID.TID 0000.0001)     Wall clock time:   4.1961669921875000E-005
(PID.TID 0000.0001)          No. starts:           4
(PID.TID 0000.0001)           No. stops:           4
(PID.TID 0000.0001)   Seconds in section "DO_OCEANIC_PHYS     [FORWARD_STEP]":
(PID.TID 0000.0001)           User time:   0.0000000000000000
(PID.TID 0000.0001)         System time:   0.0000000000000000
(PID.TID 0000.0001)     Wall clock time:   5.5909156799316406E-004
(PID.TID 0000.0001)          No. starts:           4
(PID.TID 0000.0001)           No. stops:           4
(PID.TID 0000.0001)   Seconds in section "GCHEM_CALC_TENDENCY [FORWARD_STEP]":
(PID.TID 0000.0001)           User time:   0.0000000000000000
(PID.TID 0000.0001)         System time:   0.0000000000000000
(PID.TID 0000.0001)     Wall clock time:   3.5762786865234375E-005
(PID.TID 0000.0001)          No. starts:           4
(PID.TID 0000.0001)           No. stops:           4
(PID.TID 0000.0001)   Seconds in section "THERMODYNAMICS      [FORWARD_STEP]":
(PID.TID 0000.0001)           User time:  0.18000000000000016
(PID.TID 0000.0001)         System time:   0.0000000000000000
(PID.TID 0000.0001)     Wall clock time:  0.17997217178344727
(PID.TID 0000.0001)          No. starts:           4
(PID.TID 0000.0001)           No. stops:           4
(PID.TID 0000.0001)   Seconds in section "TRC_CORRECTION_STEP [FORWARD_STEP]":
(PID.TID 0000.0001)           User time:   1.0000000000000009E-002
(PID.TID 0000.0001)         System time:   0.0000000000000000
(PID.TID 0000.0001)     Wall clock time:   1.2263059616088867E-002
(PID.TID 0000.0001)          No. starts:           4
(PID.TID 0000.0001)           No. stops:           4
(PID.TID 0000.0001)   Seconds in section "GCHEM_FORCING_SEP  [FORWARD_STEP]":
(PID.TID 0000.0001)           User time:   3.0000000000000027E-002
(PID.TID 0000.0001)         System time:   0.0000000000000000
(PID.TID 0000.0001)     Wall clock time:   2.4889230728149414E-002
(PID.TID 0000.0001)          No. starts:           4
(PID.TID 0000.0001)           No. stops:           4
(PID.TID 0000.0001)   Seconds in section "GUD_FORCING [GCHEM_FORCING_SEP]":
(PID.TID 0000.0001)           User time:   2.0000000000000018E-002
(PID.TID 0000.0001)         System time:   0.0000000000000000
(PID.TID 0000.0001)     Wall clock time:   2.2882699966430664E-002
(PID.TID 0000.0001)          No. starts:           4
(PID.TID 0000.0001)           No. stops:           4
(PID.TID 0000.0001)   Seconds in section "GUD_LIGHT [GUD_FORCING]":
(PID.TID 0000.0001)           User time:   0.0000000000000000
(PID.TID 0000.0001)         System time:   0.0000000000000000
(PID.TID 0000.0001)     Wall clock time:   5.0330162048339844E-004
(PID.TID 0000.0001)          No. starts:           4
(PID.TID 0000.0001)           No. stops:           4
(PID.TID 0000.0001)   Seconds in section "GUD_FE_CHEM [GUD_FORCING]":
(PID.TID 0000.0001)           User time:   0.0000000000000000
(PID.TID 0000.0001)         System time:   0.0000000000000000
(PID.TID 0000.0001)     Wall clock time:   1.4901161193847656E-004
(PID.TID 0000.0001)          No. starts:           8
(PID.TID 0000.0001)           No. stops:           8
(PID.TID 0000.0001)   Seconds in section "GUD_MODEL [GUD_FORCING]":
(PID.TID 0000.0001)           User time:   1.0000000000000009E-002
(PID.TID 0000.0001)         System time:   0.0000000000000000
(PID.TID 0000.0001)     Wall clock time:   1.0764837265014648E-002
(PID.TID 0000.0001)          No. starts:           4
(PID.TID 0000.0001)           No. stops:           4
(PID.TID 0000.0001)   Seconds in section "GUD_SINKING [GUD_FORCING]":
(PID.TID 0000.0001)           User time:   1.0000000000000009E-002
(PID.TID 0000.0001)         System time:   0.0000000000000000
(PID.TID 0000.0001)     Wall clock time:   1.0622978210449219E-002
(PID.TID 0000.0001)          No. starts:           4
(PID.TID 0000.0001)           No. stops:           4
(PID.TID 0000.0001)   Seconds in section "DIAGS_FILL [GUD_FORCING]":
(PID.TID 0000.0001)           User time:   0.0000000000000000
(PID.TID 0000.0001)         System time:   0.0000000000000000
(PID.TID 0000.0001)     Wall clock time:   9.4652175903320312E-005
(PID.TID 0000.0001)          No. starts:           4
(PID.TID 0000.0001)           No. stops:           4
(PID.TID 0000.0001)   Seconds in section "BLOCKING_EXCHANGES  [FORWARD_STEP]":
(PID.TID 0000.0001)           User time:   1.0000000000000009E-002
(PID.TID 0000.0001)         System time:   0.0000000000000000
(PID.TID 0000.0001)     Wall clock time:   9.0379714965820312E-003
(PID.TID 0000.0001)          No. starts:           4
(PID.TID 0000.0001)           No. stops:           4
(PID.TID 0000.0001)   Seconds in section "DO_STATEVARS_TAVE   [FORWARD_STEP]":
(PID.TID 0000.0001)           User time:   0.0000000000000000
(PID.TID 0000.0001)         System time:   0.0000000000000000
(PID.TID 0000.0001)     Wall clock time:   3.3497810363769531E-004
(PID.TID 0000.0001)          No. starts:           4
(PID.TID 0000.0001)           No. stops:           4
(PID.TID 0000.0001)   Seconds in section "MONITOR             [FORWARD_STEP]":
(PID.TID 0000.0001)           User time:   0.0000000000000000
(PID.TID 0000.0001)         System time:   0.0000000000000000
(PID.TID 0000.0001)     Wall clock time:   2.9163360595703125E-003
(PID.TID 0000.0001)          No. starts:           4
(PID.TID 0000.0001)           No. stops:           4
(PID.TID 0000.0001)   Seconds in section "DO_THE_MODEL_IO     [FORWARD_STEP]":
(PID.TID 0000.0001)           User time:  0.81999999999999984
(PID.TID 0000.0001)         System time:   2.0000000000000004E-002
(PID.TID 0000.0001)     Wall clock time:  0.85187506675720215
(PID.TID 0000.0001)          No. starts:           4
(PID.TID 0000.0001)           No. stops:           4
(PID.TID 0000.0001)   Seconds in section "PTRACERS_RESET      [FORWARD_STEP]":
(PID.TID 0000.0001)           User time:   0.0000000000000000
(PID.TID 0000.0001)         System time:   0.0000000000000000
(PID.TID 0000.0001)     Wall clock time:   4.4107437133789062E-005
(PID.TID 0000.0001)          No. starts:           4
(PID.TID 0000.0001)           No. stops:           4
(PID.TID 0000.0001)   Seconds in section "DO_WRITE_PICKUP     [FORWARD_STEP]":
(PID.TID 0000.0001)           User time:   0.0000000000000000
(PID.TID 0000.0001)         System time:   9.9999999999999950E-003
(PID.TID 0000.0001)     Wall clock time:   3.0964851379394531E-002
(PID.TID 0000.0001)          No. starts:           4
(PID.TID 0000.0001)           No. stops:           4
(PID.TID 0000.0001) // ======================================================
(PID.TID 0000.0001) // Tile <-> Tile communication statistics
(PID.TID 0000.0001) // ======================================================
(PID.TID 0000.0001) // o Tile number: 000001
(PID.TID 0000.0001) //         No. X exchanges =              0
(PID.TID 0000.0001) //            Max. X spins =              0
(PID.TID 0000.0001) //            Min. X spins =     1000000000
(PID.TID 0000.0001) //          Total. X spins =              0
(PID.TID 0000.0001) //            Avg. X spins =       0.00E+00
(PID.TID 0000.0001) //         No. Y exchanges =              0
(PID.TID 0000.0001) //            Max. Y spins =              0
(PID.TID 0000.0001) //            Min. Y spins =     1000000000
(PID.TID 0000.0001) //          Total. Y spins =              0
(PID.TID 0000.0001) //            Avg. Y spins =       0.00E+00
(PID.TID 0000.0001) // o Thread number: 000001
(PID.TID 0000.0001) //            No. barriers =          21564
(PID.TID 0000.0001) //      Max. barrier spins =              1
(PID.TID 0000.0001) //      Min. barrier spins =              1
(PID.TID 0000.0001) //     Total barrier spins =          21564
(PID.TID 0000.0001) //      Avg. barrier spins =       1.00E+00
PROGRAM MAIN: Execution ended Normally
