(PID.TID 0000.0001) %MON XC_max                       =   3.3550000000000000E+02
(PID.TID 0000.0001) %MON XC_min                       =   3.3550000000000000E+02
(PID.TID 0000.0001) %MON XC_mean                      =   3.3550000000000000E+02
(PID.TID 0000.0001) %MON XC_sd                        =   0.0000000000000000E+00
(PID.TID 0000.0001) %MON XG_max                       =   3.3500000000000000E+02
(PID.TID 0000.0001) %MON XG_min                       =   3.3500000000000000E+02
(PID.TID 0000.0001) %MON XG_mean                      =   3.3500000000000000E+02
(PID.TID 0000.0001) %MON XG_sd                        =   0.0000000000000000E+00
(PID.TID 0000.0001) %MON DXC_max                      =   1.0603184087719869E+05
(PID.TID 0000.0001) %MON DXC_min                      =   1.0603184087719869E+05
(PID.TID 0000.0001) %MON DXC_mean                     =   1.0603184087719869E+05
(PID.TID 0000.0001) %MON DXC_sd                       =   0.0000000000000000E+00
(PID.TID 0000.0001) %MON DXF_max                      =   1.0603184087719869E+05
(PID.TID 0000.0001) %MON DXF_min                      =   1.0603184087719869E+05
(PID.TID 0000.0001) %MON DXF_mean                     =   1.0603184087719869E+05
(PID.TID 0000.0001) %MON DXF_sd                       =   0.0000000000000000E+00
(PID.TID 0000.0001) %MON DXG_max                      =   1.0573606049668728E+05
(PID.TID 0000.0001) %MON DXG_min                      =   1.0573606049668728E+05
(PID.TID 0000.0001) %MON DXG_mean                     =   1.0573606049668728E+05
(PID.TID 0000.0001) %MON DXG_sd                       =   0.0000000000000000E+00
(PID.TID 0000.0001) %MON DXV_max                      =   1.0573606049668728E+05
(PID.TID 0000.0001) %MON DXV_min                      =   1.0573606049668728E+05
(PID.TID 0000.0001) %MON DXV_mean                     =   1.0573606049668728E+05
(PID.TID 0000.0001) %MON DXV_sd                       =   0.0000000000000000E+00
(PID.TID 0000.0001) %MON YC_max                       =  -1.7500000000000000E+01
(PID.TID 0000.0001) %MON YC_min                       =  -1.7500000000000000E+01
(PID.TID 0000.0001) %MON YC_mean                      =  -1.7500000000000000E+01
(PID.TID 0000.0001) %MON YC_sd                        =   0.0000000000000000E+00
(PID.TID 0000.0001) %MON YG_max                       =  -1.8000000000000000E+01
(PID.TID 0000.0001) %MON YG_min                       =  -1.8000000000000000E+01
(PID.TID 0000.0001) %MON YG_mean                      =  -1.8000000000000000E+01
(PID.TID 0000.0001) %MON YG_sd                        =   0.0000000000000000E+00
(PID.TID 0000.0001) %MON DYC_max                      =   1.1117747335203880E+05
(PID.TID 0000.0001) %MON DYC_min                      =   1.1117747335203880E+05
(PID.TID 0000.0001) %MON DYC_mean                     =   1.1117747335203880E+05
(PID.TID 0000.0001) %MON DYC_sd                       =   0.0000000000000000E+00
(PID.TID 0000.0001) %MON DYF_max                      =   1.1117747335203880E+05
(PID.TID 0000.0001) %MON DYF_min                      =   1.1117747335203880E+05
(PID.TID 0000.0001) %MON DYF_mean                     =   1.1117747335203880E+05
(PID.TID 0000.0001) %MON DYF_sd                       =   0.0000000000000000E+00
(PID.TID 0000.0001) %MON DYG_max                      =   1.1117747335203880E+05
(PID.TID 0000.0001) %MON DYG_min                      =   1.1117747335203880E+05
(PID.TID 0000.0001) %MON DYG_mean                     =   1.1117747335203880E+05
(PID.TID 0000.0001) %MON DYG_sd                       =   0.0000000000000000E+00
(PID.TID 0000.0001) %MON DYU_max                      =   1.1117747335203880E+05
(PID.TID 0000.0001) %MON DYU_min                      =   1.1117747335203880E+05
(PID.TID 0000.0001) %MON DYU_mean                     =   1.1117747335203880E+05
(PID.TID 0000.0001) %MON DYU_sd                       =   0.0000000000000000E+00
(PID.TID 0000.0001) %MON RA_max                       =   1.1788202541769560E+10
(PID.TID 0000.0001) %MON RA_min                       =   1.1788202541769560E+10
(PID.TID 0000.0001) %MON RA_mean                      =   1.1788202541769560E+10
(PID.TID 0000.0001) %MON RA_sd                        =   0.0000000000000000E+00
(PID.TID 0000.0001) %MON RAW_max                      =   1.1788202541769560E+10
(PID.TID 0000.0001) %MON RAW_min                      =   1.1788202541769560E+10
(PID.TID 0000.0001) %MON RAW_mean                     =   1.1788202541769560E+10
(PID.TID 0000.0001) %MON RAW_sd                       =   0.0000000000000000E+00
(PID.TID 0000.0001) %MON RAS_max                      =   1.1755318843773766E+10
(PID.TID 0000.0001) %MON RAS_min                      =   1.1755318843773766E+10
(PID.TID 0000.0001) %MON RAS_mean                     =   1.1755318843773766E+10
(PID.TID 0000.0001) %MON RAS_sd                       =   0.0000000000000000E+00
(PID.TID 0000.0001) %MON RAZ_max                      =   1.1755318843773766E+10
(PID.TID 0000.0001) %MON RAZ_min                      =   1.1755318843773766E+10
(PID.TID 0000.0001) %MON RAZ_mean                     =   1.1755318843773766E+10
(PID.TID 0000.0001) %MON RAZ_sd                       =   0.0000000000000000E+00
(PID.TID 0000.0001) %MON AngleCS_max                  =   1.0000000000000000E+00
(PID.TID 0000.0001) %MON AngleCS_min                  =   1.0000000000000000E+00
(PID.TID 0000.0001) %MON AngleCS_mean                 =   1.0000000000000000E+00
(PID.TID 0000.0001) %MON AngleCS_sd                   =   0.0000000000000000E+00
(PID.TID 0000.0001) %MON AngleSN_max                  =   0.0000000000000000E+00
(PID.TID 0000.0001) %MON AngleSN_min                  =   0.0000000000000000E+00
(PID.TID 0000.0001) %MON AngleSN_mean                 =   0.0000000000000000E+00
(PID.TID 0000.0001) %MON AngleSN_sd                   =   0.0000000000000000E+00
(PID.TID 0000.0001) %MON fCori_max                    =  -4.3855676645210050E-05
(PID.TID 0000.0001) %MON fCori_min                    =  -4.3855676645210050E-05
(PID.TID 0000.0001) %MON fCori_mean                   =  -4.3855676645210050E-05
(PID.TID 0000.0001) %MON fCori_sd                     =   0.0000000000000000E+00
(PID.TID 0000.0001) %MON fCoriG_max                   =  -4.5067801836624727E-05
(PID.TID 0000.0001) %MON fCoriG_min                   =  -4.5067801836624727E-05
(PID.TID 0000.0001) %MON fCoriG_mean                  =  -4.5067801836624727E-05
(PID.TID 0000.0001) %MON fCoriG_sd                    =   0.0000000000000000E+00
(PID.TID 0000.0001) %MON fCoriCos_max                 =   1.3909243610206993E-04
(PID.TID 0000.0001) %MON fCoriCos_min                 =   1.3909243610206993E-04
(PID.TID 0000.0001) %MON fCoriCos_mean                =   1.3909243610206993E-04
(PID.TID 0000.0001) %MON fCoriCos_sd                  =   0.0000000000000000E+00
(PID.TID 0000.0001) %MON time_tsnumber                =                     0
(PID.TID 0000.0001) %MON time_secondsf                =   0.0000000000000000E+00
(PID.TID 0000.0001) %MON dynstat_eta_max              =   0.0000000000000000E+00
(PID.TID 0000.0001) %MON dynstat_eta_min              =   0.0000000000000000E+00
(PID.TID 0000.0001) %MON dynstat_eta_mean             =   0.0000000000000000E+00
(PID.TID 0000.0001) %MON dynstat_eta_sd               =   0.0000000000000000E+00
(PID.TID 0000.0001) %MON dynstat_eta_del2             =   0.0000000000000000E+00
(PID.TID 0000.0001) %MON dynstat_uvel_max             =   0.0000000000000000E+00
(PID.TID 0000.0001) %MON dynstat_uvel_min             =   0.0000000000000000E+00
(PID.TID 0000.0001) %MON dynstat_uvel_mean            =   0.0000000000000000E+00
(PID.TID 0000.0001) %MON dynstat_uvel_sd              =   0.0000000000000000E+00
(PID.TID 0000.0001) %MON dynstat_uvel_del2            =   0.0000000000000000E+00
(PID.TID 0000.0001) %MON dynstat_vvel_max             =   0.0000000000000000E+00
(PID.TID 0000.0001) %MON dynstat_vvel_min             =   0.0000000000000000E+00
(PID.TID 0000.0001) %MON dynstat_vvel_mean            =   0.0000000000000000E+00
(PID.TID 0000.0001) %MON dynstat_vvel_sd              =   0.0000000000000000E+00
(PID.TID 0000.0001) %MON dynstat_vvel_del2            =   0.0000000000000000E+00
(PID.TID 0000.0001) %MON dynstat_wvel_max             =   0.0000000000000000E+00
(PID.TID 0000.0001) %MON dynstat_wvel_min             =   0.0000000000000000E+00
(PID.TID 0000.0001) %MON dynstat_wvel_mean            =   0.0000000000000000E+00
(PID.TID 0000.0001) %MON dynstat_wvel_sd              =   0.0000000000000000E+00
(PID.TID 0000.0001) %MON dynstat_wvel_del2            =   0.0000000000000000E+00
(PID.TID 0000.0001) %MON dynstat_theta_max            =   2.6345800399780273E+01
(PID.TID 0000.0001) %MON dynstat_theta_min            =   2.6737000942230225E+00
(PID.TID 0000.0001) %MON dynstat_theta_mean           =   5.4735936027057521E+00
(PID.TID 0000.0001) %MON dynstat_theta_sd             =   5.1972090828105486E+00
(PID.TID 0000.0001) %MON dynstat_theta_del2           =   0.0000000000000000E+00
(PID.TID 0000.0001) %MON dynstat_salt_max             =   3.5000000000000000E+01
(PID.TID 0000.0001) %MON dynstat_salt_min             =   3.5000000000000000E+01
(PID.TID 0000.0001) %MON dynstat_salt_mean            =   3.5000000000000007E+01
(PID.TID 0000.0001) %MON dynstat_salt_sd              =   7.1054273576010019E-15
(PID.TID 0000.0001) %MON dynstat_salt_del2            =   0.0000000000000000E+00
(PID.TID 0000.0001) %MON dynstat_sst_max              =   2.6345800399780273E+01
(PID.TID 0000.0001) %MON dynstat_sst_min              =   2.6345800399780273E+01
(PID.TID 0000.0001) %MON dynstat_sst_mean             =   2.6345800399780273E+01
(PID.TID 0000.0001) %MON dynstat_sst_sd               =   0.0000000000000000E+00
(PID.TID 0000.0001) %MON dynstat_sst_del2             =   0.0000000000000000E+00
(PID.TID 0000.0001) %MON dynstat_sss_max              =   3.5000000000000000E+01
(PID.TID 0000.0001) %MON dynstat_sss_min              =   3.5000000000000000E+01
(PID.TID 0000.0001) %MON dynstat_sss_mean             =   3.5000000000000000E+01
(PID.TID 0000.0001) %MON dynstat_sss_sd               =   0.0000000000000000E+00
(PID.TID 0000.0001) %MON dynstat_sss_del2             =   0.0000000000000000E+00
(PID.TID 0000.0001) %MON forcing_qnet_max             =   0.0000000000000000E+00
(PID.TID 0000.0001) %MON forcing_qnet_min             =   0.0000000000000000E+00
(PID.TID 0000.0001) %MON forcing_qnet_mean            =   0.0000000000000000E+00
(PID.TID 0000.0001) %MON forcing_qnet_sd              =   0.0000000000000000E+00
(PID.TID 0000.0001) %MON forcing_qnet_del2            =   0.0000000000000000E+00
(PID.TID 0000.0001) %MON forcing_qsw_max              =   0.0000000000000000E+00
(PID.TID 0000.0001) %MON forcing_qsw_min              =   0.0000000000000000E+00
(PID.TID 0000.0001) %MON forcing_qsw_mean             =   0.0000000000000000E+00
(PID.TID 0000.0001) %MON forcing_qsw_sd               =   0.0000000000000000E+00
(PID.TID 0000.0001) %MON forcing_qsw_del2             =   0.0000000000000000E+00
(PID.TID 0000.0001) %MON forcing_empmr_max            =   0.0000000000000000E+00
(PID.TID 0000.0001) %MON forcing_empmr_min            =   0.0000000000000000E+00
(PID.TID 0000.0001) %MON forcing_empmr_mean           =   0.0000000000000000E+00
(PID.TID 0000.0001) %MON forcing_empmr_sd             =   0.0000000000000000E+00
(PID.TID 0000.0001) %MON forcing_empmr_del2           =   0.0000000000000000E+00
(PID.TID 0000.0001) %MON forcing_fu_max               =   0.0000000000000000E+00
(PID.TID 0000.0001) %MON forcing_fu_min               =   0.0000000000000000E+00
(PID.TID 0000.0001) %MON forcing_fu_mean              =   0.0000000000000000E+00
(PID.TID 0000.0001) %MON forcing_fu_sd                =   0.0000000000000000E+00
(PID.TID 0000.0001) %MON forcing_fu_del2              =   0.0000000000000000E+00
(PID.TID 0000.0001) %MON forcing_fv_max               =   0.0000000000000000E+00
(PID.TID 0000.0001) %MON forcing_fv_min               =   0.0000000000000000E+00
(PID.TID 0000.0001) %MON forcing_fv_mean              =   0.0000000000000000E+00
(PID.TID 0000.0001) %MON forcing_fv_sd                =   0.0000000000000000E+00
(PID.TID 0000.0001) %MON forcing_fv_del2              =   0.0000000000000000E+00
(PID.TID 0000.0001) %MON advcfl_uvel_max              =   0.0000000000000000E+00
(PID.TID 0000.0001) %MON advcfl_vvel_max              =   0.0000000000000000E+00
(PID.TID 0000.0001) %MON advcfl_wvel_max              =   0.0000000000000000E+00
(PID.TID 0000.0001) %MON advcfl_W_hf_max              =   0.0000000000000000E+00
(PID.TID 0000.0001) %MON pe_b_mean                    =   0.0000000000000000E+00
(PID.TID 0000.0001) %MON ke_max                       =   0.0000000000000000E+00
(PID.TID 0000.0001) %MON ke_mean                      =   0.0000000000000000E+00
(PID.TID 0000.0001) %MON ke_vol                       =   4.1199767883484609E+13
(PID.TID 0000.0001) %MON vort_r_min                   =   0.0000000000000000E+00
(PID.TID 0000.0001) %MON vort_r_max                   =   0.0000000000000000E+00
(PID.TID 0000.0001) %MON vort_a_mean                  =  -4.5067801836624727E-05
(PID.TID 0000.0001) %MON vort_a_sd                    =  -4.1359030627651384E-25
(PID.TID 0000.0001) %MON vort_p_mean                  =  -4.5067801836624727E-05
(PID.TID 0000.0001) %MON vort_p_sd                    =   0.0000000000000000E+00
(PID.TID 0000.0001) %MON surfExpan_theta_mean         =   0.0000000000000000E+00
(PID.TID 0000.0001) %MON surfExpan_salt_mean          =   0.0000000000000000E+00
(PID.TID 0000.0001) %MON trcstat_ptracer01_max        =                      NAN
(PID.TID 0000.0001) %MON trcstat_ptracer01_min        =                      NAN
(PID.TID 0000.0001) %MON trcstat_ptracer01_mean       =                      NAN
(PID.TID 0000.0001) %MON trcstat_ptracer01_sd         =                      NAN
(PID.TID 0000.0001) %MON trcstat_ptracer01_del2       =                      NAN
(PID.TID 0000.0001) %MON trcstat_ptracer02_max        =   2.5584036484360695E-02
(PID.TID 0000.0001) %MON trcstat_ptracer02_min        =   1.8763074649541522E-07
(PID.TID 0000.0001) %MON trcstat_ptracer02_mean       =   6.0352662496818848E-04
(PID.TID 0000.0001) %MON trcstat_ptracer02_sd         =   3.2425361014467536E-03
(PID.TID 0000.0001) %MON trcstat_ptracer02_del2       =   0.0000000000000000E+00
(PID.TID 0000.0001) %MON trcstat_ptracer03_max        =   1.8258459866046906E-02
(PID.TID 0000.0001) %MON trcstat_ptracer03_min        =   3.8796779335825704E-06
(PID.TID 0000.0001) %MON trcstat_ptracer03_mean       =   6.0474443227462045E-04
(PID.TID 0000.0001) %MON trcstat_ptracer03_sd         =   1.9428680890593122E-03
(PID.TID 0000.0001) %MON trcstat_ptracer03_del2       =   0.0000000000000000E+00
(PID.TID 0000.0001) %MON trcstat_ptracer04_max        =   3.3903499603271484E+01
(PID.TID 0000.0001) %MON trcstat_ptracer04_min        =   4.6300001442432404E-02
(PID.TID 0000.0001) %MON trcstat_ptracer04_mean       =   2.3502389802217742E+01
(PID.TID 0000.0001) %MON trcstat_ptracer04_sd         =   7.8162030599380596E+00
(PID.TID 0000.0001) %MON trcstat_ptracer04_del2       =   0.0000000000000000E+00
(PID.TID 0000.0001) %MON trcstat_ptracer05_max        =   2.2437000274658203E+00
(PID.TID 0000.0001) %MON trcstat_ptracer05_min        =   2.1024999022483826E-01
(PID.TID 0000.0001) %MON trcstat_ptracer05_mean       =   1.5821337454308768E+00
(PID.TID 0000.0001) %MON trcstat_ptracer05_sd         =   4.6735065681379767E-01
(PID.TID 0000.0001) %MON trcstat_ptracer05_del2       =   0.0000000000000000E+00
(PID.TID 0000.0001) %MON trcstat_ptracer06_max        =   3.9387401580810547E+01
(PID.TID 0000.0001) %MON trcstat_ptracer06_min        =   1.2247999906539917E+00
(PID.TID 0000.0001) %MON trcstat_ptracer06_mean       =   2.9621888811155113E+01
(PID.TID 0000.0001) %MON trcstat_ptracer06_sd         =   1.1270588565468758E+01
(PID.TID 0000.0001) %MON trcstat_ptracer06_del2       =   0.0000000000000000E+00
(PID.TID 0000.0001) %MON trcstat_ptracer07_max        =   1.3000000035390258E-03
(PID.TID 0000.0001) %MON trcstat_ptracer07_min        =   1.3000000035390258E-03
(PID.TID 0000.0001) %MON trcstat_ptracer07_mean       =   1.3000000035390258E-03
(PID.TID 0000.0001) %MON trcstat_ptracer07_sd         =   0.0000000000000000E+00
(PID.TID 0000.0001) %MON trcstat_ptracer07_del2       =   0.0000000000000000E+00
(PID.TID 0000.0001) %MON trcstat_ptracer08_max        =   6.1361303552985191E-01
(PID.TID 0000.0001) %MON trcstat_ptracer08_min        =   0.0000000000000000E+00
(PID.TID 0000.0001) %MON trcstat_ptracer08_mean       =   2.5768235051024848E-02
(PID.TID 0000.0001) %MON trcstat_ptracer08_sd         =   1.1093058611766035E-01
(PID.TID 0000.0001) %MON trcstat_ptracer08_del2       =   0.0000000000000000E+00
(PID.TID 0000.0001) %MON trcstat_ptracer09_max        =   8.1815071403980255E-02
(PID.TID 0000.0001) %MON trcstat_ptracer09_min        =   0.0000000000000000E+00
(PID.TID 0000.0001) %MON trcstat_ptracer09_mean       =   3.4357646734699799E-03
(PID.TID 0000.0001) %MON trcstat_ptracer09_sd         =   1.4790744815688046E-02
(PID.TID 0000.0001) %MON trcstat_ptracer09_del2       =   0.0000000000000000E+00
(PID.TID 0000.0001) %MON trcstat_ptracer10_max        =   5.1134419627487659E-03
(PID.TID 0000.0001) %MON trcstat_ptracer10_min        =   0.0000000000000000E+00
(PID.TID 0000.0001) %MON trcstat_ptracer10_mean       =   2.1473529209187374E-04
(PID.TID 0000.0001) %MON trcstat_ptracer10_sd         =   9.2442155098050290E-04
(PID.TID 0000.0001) %MON trcstat_ptracer10_del2       =   0.0000000000000000E+00
(PID.TID 0000.0001) %MON trcstat_ptracer11_max        =   5.1134416025888640E-06
(PID.TID 0000.0001) %MON trcstat_ptracer11_min        =   0.0000000000000000E+00
(PID.TID 0000.0001) %MON trcstat_ptracer11_mean       =   2.1473529239837693E-07
(PID.TID 0000.0001) %MON trcstat_ptracer11_sd         =   9.2442155063872205E-07
(PID.TID 0000.0001) %MON trcstat_ptracer11_del2       =   0.0000000000000000E+00
(PID.TID 0000.0001) %MON trcstat_ptracer12_max        =   3.2696326961740851E-02
(PID.TID 0000.0001) %MON trcstat_ptracer12_min        =   1.4074325918045361E-04
(PID.TID 0000.0001) %MON trcstat_ptracer12_mean       =   9.4718200756289880E-03
(PID.TID 0000.0001) %MON trcstat_ptracer12_sd         =   1.1596152472639534E-02
(PID.TID 0000.0001) %MON trcstat_ptracer12_del2       =   0.0000000000000000E+00
(PID.TID 0000.0001) %MON trcstat_ptracer13_max        =   4.3595102615654469E-03
(PID.TID 0000.0001) %MON trcstat_ptracer13_min        =   1.8765767890727147E-05
(PID.TID 0000.0001) %MON trcstat_ptracer13_mean       =   1.2629093434171983E-03
(PID.TID 0000.0001) %MON trcstat_ptracer13_sd         =   1.5461536630186044E-03
(PID.TID 0000.0001) %MON trcstat_ptracer13_del2       =   0.0000000000000000E+00
(PID.TID 0000.0001) %MON trcstat_ptracer14_max        =   2.7246939134784043E-04
(PID.TID 0000.0001) %MON trcstat_ptracer14_min        =   1.1728604931704467E-06
(PID.TID 0000.0001) %MON trcstat_ptracer14_mean       =   7.8931833963574895E-05
(PID.TID 0000.0001) %MON trcstat_ptracer14_sd         =   9.6634603938662776E-05
(PID.TID 0000.0001) %MON trcstat_ptracer14_del2       =   0.0000000000000000E+00
(PID.TID 0000.0001) %MON trcstat_ptracer15_max        =   1.6253039240837097E-02
(PID.TID 0000.0001) %MON trcstat_ptracer15_min        =   1.1382005177438259E-03
(PID.TID 0000.0001) %MON trcstat_ptracer15_mean       =   5.4894673427532239E-03
(PID.TID 0000.0001) %MON trcstat_ptracer15_sd         =   5.1731692661236344E-03
(PID.TID 0000.0001) %MON trcstat_ptracer15_del2       =   0.0000000000000000E+00
(PID.TID 0000.0001) %MON trcstat_ptracer16_max        =   2.7246940703662403E-07
(PID.TID 0000.0001) %MON trcstat_ptracer16_min        =   1.1728603643845759E-09
(PID.TID 0000.0001) %MON trcstat_ptracer16_mean       =   7.8931834490194816E-08
(PID.TID 0000.0001) %MON trcstat_ptracer16_sd         =   9.6634605997272585E-08
(PID.TID 0000.0001) %MON trcstat_ptracer16_del2       =   0.0000000000000000E+00
(PID.TID 0000.0001) %MON trcstat_ptracer17_max        =                      NAN
(PID.TID 0000.0001) %MON trcstat_ptracer17_min        =                      NAN
(PID.TID 0000.0001) %MON trcstat_ptracer17_mean       =                      NAN
(PID.TID 0000.0001) %MON trcstat_ptracer17_sd         =                      NAN
(PID.TID 0000.0001) %MON trcstat_ptracer17_del2       =                      NAN
(PID.TID 0000.0001) %MON trcstat_ptracer18_max        =   5.1134419627487659E-03
(PID.TID 0000.0001) %MON trcstat_ptracer18_min        =   0.0000000000000000E+00
(PID.TID 0000.0001) %MON trcstat_ptracer18_mean       =   2.1473529209187374E-04
(PID.TID 0000.0001) %MON trcstat_ptracer18_sd         =   9.2442155098050290E-04
(PID.TID 0000.0001) %MON trcstat_ptracer18_del2       =   0.0000000000000000E+00
(PID.TID 0000.0001) %MON trcstat_ptracer19_max        =   8.8153867181972601E-04
(PID.TID 0000.0001) %MON trcstat_ptracer19_min        =   0.0000000000000000E+00
(PID.TID 0000.0001) %MON trcstat_ptracer19_mean       =   2.6284899836225207E-05
(PID.TID 0000.0001) %MON trcstat_ptracer19_sd         =   1.3780694875415345E-04
(PID.TID 0000.0001) %MON trcstat_ptracer19_del2       =   0.0000000000000000E+00
(PID.TID 0000.0001) %MON trcstat_ptracer20_max        =   8.8153867181972601E-04
(PID.TID 0000.0001) %MON trcstat_ptracer20_min        =   0.0000000000000000E+00
(PID.TID 0000.0001) %MON trcstat_ptracer20_mean       =   2.6284899836225207E-05
(PID.TID 0000.0001) %MON trcstat_ptracer20_sd         =   1.3780694875415345E-04
(PID.TID 0000.0001) %MON trcstat_ptracer20_del2       =   0.0000000000000000E+00
(PID.TID 0000.0001) %MON trcstat_ptracer21_max        =   8.8153867181972601E-04
(PID.TID 0000.0001) %MON trcstat_ptracer21_min        =   0.0000000000000000E+00
(PID.TID 0000.0001) %MON trcstat_ptracer21_mean       =   2.6284899836225207E-05
(PID.TID 0000.0001) %MON trcstat_ptracer21_sd         =   1.3780694875415345E-04
(PID.TID 0000.0001) %MON trcstat_ptracer21_del2       =   0.0000000000000000E+00
(PID.TID 0000.0001) %MON trcstat_ptracer22_max        =   8.8153867181972601E-04
(PID.TID 0000.0001) %MON trcstat_ptracer22_min        =   0.0000000000000000E+00
(PID.TID 0000.0001) %MON trcstat_ptracer22_mean       =   2.6284899836225207E-05
(PID.TID 0000.0001) %MON trcstat_ptracer22_sd         =   1.3780694875415345E-04
(PID.TID 0000.0001) %MON trcstat_ptracer22_del2       =   0.0000000000000000E+00
(PID.TID 0000.0001) %MON trcstat_ptracer23_max        =   8.8153867181972601E-04
(PID.TID 0000.0001) %MON trcstat_ptracer23_min        =   0.0000000000000000E+00
(PID.TID 0000.0001) %MON trcstat_ptracer23_mean       =   2.6284899836225207E-05
(PID.TID 0000.0001) %MON trcstat_ptracer23_sd         =   1.3780694875415345E-04
(PID.TID 0000.0001) %MON trcstat_ptracer23_del2       =   0.0000000000000000E+00
(PID.TID 0000.0001) %MON trcstat_ptracer24_max        =   8.8153867181972601E-04
(PID.TID 0000.0001) %MON trcstat_ptracer24_min        =   0.0000000000000000E+00
(PID.TID 0000.0001) %MON trcstat_ptracer24_mean       =   2.6284899836225207E-05
(PID.TID 0000.0001) %MON trcstat_ptracer24_sd         =   1.3780694875415345E-04
(PID.TID 0000.0001) %MON trcstat_ptracer24_del2       =   0.0000000000000000E+00
(PID.TID 0000.0001) %MON trcstat_ptracer25_max        =   8.8153867181972601E-04
(PID.TID 0000.0001) %MON trcstat_ptracer25_min        =   0.0000000000000000E+00
(PID.TID 0000.0001) %MON trcstat_ptracer25_mean       =   2.6284899836225207E-05
(PID.TID 0000.0001) %MON trcstat_ptracer25_sd         =   1.3780694875415345E-04
(PID.TID 0000.0001) %MON trcstat_ptracer25_del2       =   0.0000000000000000E+00
(PID.TID 0000.0001) %MON trcstat_ptracer26_max        =   8.8153867181972601E-04
(PID.TID 0000.0001) %MON trcstat_ptracer26_min        =   0.0000000000000000E+00
(PID.TID 0000.0001) %MON trcstat_ptracer26_mean       =   2.6284899836225207E-05
(PID.TID 0000.0001) %MON trcstat_ptracer26_sd         =   1.3780694875415345E-04
(PID.TID 0000.0001) %MON trcstat_ptracer26_del2       =   0.0000000000000000E+00
(PID.TID 0000.0001) %MON trcstat_ptracer27_max        =   8.8153867181972601E-04
(PID.TID 0000.0001) %MON trcstat_ptracer27_min        =   0.0000000000000000E+00
(PID.TID 0000.0001) %MON trcstat_ptracer27_mean       =   2.6284899836225207E-05
(PID.TID 0000.0001) %MON trcstat_ptracer27_sd         =   1.3780694875415345E-04
(PID.TID 0000.0001) %MON trcstat_ptracer27_del2       =   0.0000000000000000E+00
(PID.TID 0000.0001) %MON trcstat_ptracer28_max        =   8.8153867181972601E-04
(PID.TID 0000.0001) %MON trcstat_ptracer28_min        =   0.0000000000000000E+00
(PID.TID 0000.0001) %MON trcstat_ptracer28_mean       =   2.6284899836225207E-05
(PID.TID 0000.0001) %MON trcstat_ptracer28_sd         =   1.3780694875415345E-04
(PID.TID 0000.0001) %MON trcstat_ptracer28_del2       =   0.0000000000000000E+00
(PID.TID 0000.0001) %MON trcstat_ptracer29_max        =   8.8153867181972601E-04
(PID.TID 0000.0001) %MON trcstat_ptracer29_min        =   0.0000000000000000E+00
(PID.TID 0000.0001) %MON trcstat_ptracer29_mean       =   2.6284899836225207E-05
(PID.TID 0000.0001) %MON trcstat_ptracer29_sd         =   1.3780694875415345E-04
(PID.TID 0000.0001) %MON trcstat_ptracer29_del2       =   0.0000000000000000E+00
(PID.TID 0000.0001) %MON trcstat_ptracer30_max        =   8.8153867181972601E-04
(PID.TID 0000.0001) %MON trcstat_ptracer30_min        =   0.0000000000000000E+00
(PID.TID 0000.0001) %MON trcstat_ptracer30_mean       =   2.6284899836225207E-05
(PID.TID 0000.0001) %MON trcstat_ptracer30_sd         =   1.3780694875415345E-04
(PID.TID 0000.0001) %MON trcstat_ptracer30_del2       =   0.0000000000000000E+00
(PID.TID 0000.0001) %MON trcstat_ptracer31_max        =   8.8153867181972601E-04
(PID.TID 0000.0001) %MON trcstat_ptracer31_min        =   0.0000000000000000E+00
(PID.TID 0000.0001) %MON trcstat_ptracer31_mean       =   2.6284899836225207E-05
(PID.TID 0000.0001) %MON trcstat_ptracer31_sd         =   1.3780694875415345E-04
(PID.TID 0000.0001) %MON trcstat_ptracer31_del2       =   0.0000000000000000E+00
(PID.TID 0000.0001) %MON trcstat_ptracer32_max        =   8.8153867181972601E-04
(PID.TID 0000.0001) %MON trcstat_ptracer32_min        =   0.0000000000000000E+00
(PID.TID 0000.0001) %MON trcstat_ptracer32_mean       =   2.6284899836225207E-05
(PID.TID 0000.0001) %MON trcstat_ptracer32_sd         =   1.3780694875415345E-04
(PID.TID 0000.0001) %MON trcstat_ptracer32_del2       =   0.0000000000000000E+00
(PID.TID 0000.0001) %MON trcstat_ptracer33_max        =   8.8153867181972601E-04
(PID.TID 0000.0001) %MON trcstat_ptracer33_min        =   0.0000000000000000E+00
(PID.TID 0000.0001) %MON trcstat_ptracer33_mean       =   2.6284899836225207E-05
(PID.TID 0000.0001) %MON trcstat_ptracer33_sd         =   1.3780694875415345E-04
(PID.TID 0000.0001) %MON trcstat_ptracer33_del2       =   0.0000000000000000E+00
(PID.TID 0000.0001) %MON trcstat_ptracer34_max        =   8.8153867181972601E-04
(PID.TID 0000.0001) %MON trcstat_ptracer34_min        =   0.0000000000000000E+00
(PID.TID 0000.0001) %MON trcstat_ptracer34_mean       =   2.6284899836225207E-05
(PID.TID 0000.0001) %MON trcstat_ptracer34_sd         =   1.3780694875415345E-04
(PID.TID 0000.0001) %MON trcstat_ptracer34_del2       =   0.0000000000000000E+00
(PID.TID 0000.0001) %MON trcstat_ptracer35_max        =   8.8153867181972601E-04
(PID.TID 0000.0001) %MON trcstat_ptracer35_min        =   0.0000000000000000E+00
(PID.TID 0000.0001) %MON trcstat_ptracer35_mean       =   2.6284899836225207E-05
(PID.TID 0000.0001) %MON trcstat_ptracer35_sd         =   1.3780694875415345E-04
(PID.TID 0000.0001) %MON trcstat_ptracer35_del2       =   0.0000000000000000E+00
(PID.TID 0000.0001) %MON trcstat_ptracer36_max        =   8.8153867181972601E-04
(PID.TID 0000.0001) %MON trcstat_ptracer36_min        =   0.0000000000000000E+00
(PID.TID 0000.0001) %MON trcstat_ptracer36_mean       =   2.6284899836225207E-05
(PID.TID 0000.0001) %MON trcstat_ptracer36_sd         =   1.3780694875415345E-04
(PID.TID 0000.0001) %MON trcstat_ptracer36_del2       =   0.0000000000000000E+00
(PID.TID 0000.0001) %MON trcstat_ptracer37_max        =   8.8153867181972601E-04
(PID.TID 0000.0001) %MON trcstat_ptracer37_min        =   0.0000000000000000E+00
(PID.TID 0000.0001) %MON trcstat_ptracer37_mean       =   2.6284899836225207E-05
(PID.TID 0000.0001) %MON trcstat_ptracer37_sd         =   1.3780694875415345E-04
(PID.TID 0000.0001) %MON trcstat_ptracer37_del2       =   0.0000000000000000E+00
(PID.TID 0000.0001) %MON trcstat_ptracer38_max        =   8.8153867181972601E-04
(PID.TID 0000.0001) %MON trcstat_ptracer38_min        =   0.0000000000000000E+00
(PID.TID 0000.0001) %MON trcstat_ptracer38_mean       =   2.6284899836225207E-05
(PID.TID 0000.0001) %MON trcstat_ptracer38_sd         =   1.3780694875415345E-04
(PID.TID 0000.0001) %MON trcstat_ptracer38_del2       =   0.0000000000000000E+00
(PID.TID 0000.0001) %MON trcstat_ptracer39_max        =   8.8153867181972601E-04
(PID.TID 0000.0001) %MON trcstat_ptracer39_min        =   0.0000000000000000E+00
(PID.TID 0000.0001) %MON trcstat_ptracer39_mean       =   2.6284899836225207E-05
(PID.TID 0000.0001) %MON trcstat_ptracer39_sd         =   1.3780694875415345E-04
(PID.TID 0000.0001) %MON trcstat_ptracer39_del2       =   0.0000000000000000E+00
(PID.TID 0000.0001) %MON trcstat_ptracer40_max        =   8.8153867181972601E-04
(PID.TID 0000.0001) %MON trcstat_ptracer40_min        =   0.0000000000000000E+00
(PID.TID 0000.0001) %MON trcstat_ptracer40_mean       =   2.6284899836225207E-05
(PID.TID 0000.0001) %MON trcstat_ptracer40_sd         =   1.3780694875415345E-04
(PID.TID 0000.0001) %MON trcstat_ptracer40_del2       =   0.0000000000000000E+00
(PID.TID 0000.0001) %MON trcstat_ptracer41_max        =   8.8153867181972601E-04
(PID.TID 0000.0001) %MON trcstat_ptracer41_min        =   0.0000000000000000E+00
(PID.TID 0000.0001) %MON trcstat_ptracer41_mean       =   2.6284899836225207E-05
(PID.TID 0000.0001) %MON trcstat_ptracer41_sd         =   1.3780694875415345E-04
(PID.TID 0000.0001) %MON trcstat_ptracer41_del2       =   0.0000000000000000E+00
(PID.TID 0000.0001) %MON trcstat_ptracer42_max        =   8.8153867181972601E-04
(PID.TID 0000.0001) %MON trcstat_ptracer42_min        =   0.0000000000000000E+00
(PID.TID 0000.0001) %MON trcstat_ptracer42_mean       =   2.6284899836225207E-05
(PID.TID 0000.0001) %MON trcstat_ptracer42_sd         =   1.3780694875415345E-04
(PID.TID 0000.0001) %MON trcstat_ptracer42_del2       =   0.0000000000000000E+00
(PID.TID 0000.0001) %MON trcstat_ptracer43_max        =   8.8153867181972601E-04
(PID.TID 0000.0001) %MON trcstat_ptracer43_min        =   0.0000000000000000E+00
(PID.TID 0000.0001) %MON trcstat_ptracer43_mean       =   2.6284899836225207E-05
(PID.TID 0000.0001) %MON trcstat_ptracer43_sd         =   1.3780694875415345E-04
(PID.TID 0000.0001) %MON trcstat_ptracer43_del2       =   0.0000000000000000E+00
(PID.TID 0000.0001) %MON trcstat_ptracer44_max        =   8.8153867181972601E-04
(PID.TID 0000.0001) %MON trcstat_ptracer44_min        =   0.0000000000000000E+00
(PID.TID 0000.0001) %MON trcstat_ptracer44_mean       =   2.6284899836225207E-05
(PID.TID 0000.0001) %MON trcstat_ptracer44_sd         =   1.3780694875415345E-04
(PID.TID 0000.0001) %MON trcstat_ptracer44_del2       =   0.0000000000000000E+00
(PID.TID 0000.0001) %MON trcstat_ptracer45_max        =   8.8153867181972601E-04
(PID.TID 0000.0001) %MON trcstat_ptracer45_min        =   0.0000000000000000E+00
(PID.TID 0000.0001) %MON trcstat_ptracer45_mean       =   2.6284899836225207E-05
(PID.TID 0000.0001) %MON trcstat_ptracer45_sd         =   1.3780694875415345E-04
(PID.TID 0000.0001) %MON trcstat_ptracer45_del2       =   0.0000000000000000E+00
(PID.TID 0000.0001) %MON trcstat_ptracer46_max        =   8.8153867181972601E-04
(PID.TID 0000.0001) %MON trcstat_ptracer46_min        =   0.0000000000000000E+00
(PID.TID 0000.0001) %MON trcstat_ptracer46_mean       =   2.6284899836225207E-05
(PID.TID 0000.0001) %MON trcstat_ptracer46_sd         =   1.3780694875415345E-04
(PID.TID 0000.0001) %MON trcstat_ptracer46_del2       =   0.0000000000000000E+00
(PID.TID 0000.0001) %MON trcstat_ptracer47_max        =   8.8153867181972601E-04
(PID.TID 0000.0001) %MON trcstat_ptracer47_min        =   0.0000000000000000E+00
(PID.TID 0000.0001) %MON trcstat_ptracer47_mean       =   2.6284899836225207E-05
(PID.TID 0000.0001) %MON trcstat_ptracer47_sd         =   1.3780694875415345E-04
(PID.TID 0000.0001) %MON trcstat_ptracer47_del2       =   0.0000000000000000E+00
(PID.TID 0000.0001) %MON trcstat_ptracer48_max        =   8.8153867181972601E-04
(PID.TID 0000.0001) %MON trcstat_ptracer48_min        =   0.0000000000000000E+00
(PID.TID 0000.0001) %MON trcstat_ptracer48_mean       =   2.6284899836225207E-05
(PID.TID 0000.0001) %MON trcstat_ptracer48_sd         =   1.3780694875415345E-04
(PID.TID 0000.0001) %MON trcstat_ptracer48_del2       =   0.0000000000000000E+00
(PID.TID 0000.0001) %MON trcstat_ptracer49_max        =   8.8153867181972601E-04
(PID.TID 0000.0001) %MON trcstat_ptracer49_min        =   0.0000000000000000E+00
(PID.TID 0000.0001) %MON trcstat_ptracer49_mean       =   2.6284899836225207E-05
(PID.TID 0000.0001) %MON trcstat_ptracer49_sd         =   1.3780694875415345E-04
(PID.TID 0000.0001) %MON trcstat_ptracer49_del2       =   0.0000000000000000E+00
(PID.TID 0000.0001) %MON trcstat_ptracer50_max        =   8.8153867181972601E-04
(PID.TID 0000.0001) %MON trcstat_ptracer50_min        =   0.0000000000000000E+00
(PID.TID 0000.0001) %MON trcstat_ptracer50_mean       =   2.6284899836225207E-05
(PID.TID 0000.0001) %MON trcstat_ptracer50_sd         =   1.3780694875415345E-04
(PID.TID 0000.0001) %MON trcstat_ptracer50_del2       =   0.0000000000000000E+00
(PID.TID 0000.0001) %MON trcstat_ptracer51_max        =   8.8153867181972601E-04
(PID.TID 0000.0001) %MON trcstat_ptracer51_min        =   0.0000000000000000E+00
(PID.TID 0000.0001) %MON trcstat_ptracer51_mean       =   2.6284899836225207E-05
(PID.TID 0000.0001) %MON trcstat_ptracer51_sd         =   1.3780694875415345E-04
(PID.TID 0000.0001) %MON trcstat_ptracer51_del2       =   0.0000000000000000E+00
(PID.TID 0000.0001) %MON trcstat_ptracer52_max        =   8.8153867181972601E-04
(PID.TID 0000.0001) %MON trcstat_ptracer52_min        =   0.0000000000000000E+00
(PID.TID 0000.0001) %MON trcstat_ptracer52_mean       =   2.6284899836225207E-05
(PID.TID 0000.0001) %MON trcstat_ptracer52_sd         =   1.3780694875415345E-04
(PID.TID 0000.0001) %MON trcstat_ptracer52_del2       =   0.0000000000000000E+00
(PID.TID 0000.0001) %MON trcstat_ptracer53_max        =   8.8153867181972601E-04
(PID.TID 0000.0001) %MON trcstat_ptracer53_min        =   0.0000000000000000E+00
(PID.TID 0000.0001) %MON trcstat_ptracer53_mean       =   2.6284899836225207E-05
(PID.TID 0000.0001) %MON trcstat_ptracer53_sd         =   1.3780694875415345E-04
(PID.TID 0000.0001) %MON trcstat_ptracer53_del2       =   0.0000000000000000E+00
(PID.TID 0000.0001) %MON trcstat_ptracer54_max        =   8.8153867181972601E-04
(PID.TID 0000.0001) %MON trcstat_ptracer54_min        =   0.0000000000000000E+00
(PID.TID 0000.0001) %MON trcstat_ptracer54_mean       =   2.6284899836225207E-05
(PID.TID 0000.0001) %MON trcstat_ptracer54_sd         =   1.3780694875415345E-04
(PID.TID 0000.0001) %MON trcstat_ptracer54_del2       =   0.0000000000000000E+00
(PID.TID 0000.0001) %MON trcstat_ptracer55_max        =   8.8153867181972601E-04
(PID.TID 0000.0001) %MON trcstat_ptracer55_min        =   0.0000000000000000E+00
(PID.TID 0000.0001) %MON trcstat_ptracer55_mean       =   2.6284899836225207E-05
(PID.TID 0000.0001) %MON trcstat_ptracer55_sd         =   1.3780694875415345E-04
(PID.TID 0000.0001) %MON trcstat_ptracer55_del2       =   0.0000000000000000E+00
(PID.TID 0000.0001) %MON trcstat_ptracer56_max        =   8.8153867181972601E-04
(PID.TID 0000.0001) %MON trcstat_ptracer56_min        =   0.0000000000000000E+00
(PID.TID 0000.0001) %MON trcstat_ptracer56_mean       =   2.6284899836225207E-05
(PID.TID 0000.0001) %MON trcstat_ptracer56_sd         =   1.3780694875415345E-04
(PID.TID 0000.0001) %MON trcstat_ptracer56_del2       =   0.0000000000000000E+00
(PID.TID 0000.0001) %MON trcstat_ptracer57_max        =   8.8153867181972601E-04
(PID.TID 0000.0001) %MON trcstat_ptracer57_min        =   0.0000000000000000E+00
(PID.TID 0000.0001) %MON trcstat_ptracer57_mean       =   2.6284899836225207E-05
(PID.TID 0000.0001) %MON trcstat_ptracer57_sd         =   1.3780694875415345E-04
(PID.TID 0000.0001) %MON trcstat_ptracer57_del2       =   0.0000000000000000E+00
(PID.TID 0000.0001) %MON trcstat_ptracer58_max        =   8.8153867181972601E-04
(PID.TID 0000.0001) %MON trcstat_ptracer58_min        =   0.0000000000000000E+00
(PID.TID 0000.0001) %MON trcstat_ptracer58_mean       =   2.6284899836225207E-05
(PID.TID 0000.0001) %MON trcstat_ptracer58_sd         =   1.3780694875415345E-04
(PID.TID 0000.0001) %MON trcstat_ptracer58_del2       =   0.0000000000000000E+00
(PID.TID 0000.0001) %MON trcstat_ptracer59_max        =   8.8153867181972601E-04
(PID.TID 0000.0001) %MON trcstat_ptracer59_min        =   0.0000000000000000E+00
(PID.TID 0000.0001) %MON trcstat_ptracer59_mean       =   2.6284899836225207E-05
(PID.TID 0000.0001) %MON trcstat_ptracer59_sd         =   1.3780694875415345E-04
(PID.TID 0000.0001) %MON trcstat_ptracer59_del2       =   0.0000000000000000E+00
(PID.TID 0000.0001) %MON trcstat_ptracer60_max        =   8.8153867181972601E-04
(PID.TID 0000.0001) %MON trcstat_ptracer60_min        =   0.0000000000000000E+00
(PID.TID 0000.0001) %MON trcstat_ptracer60_mean       =   2.6284899836225207E-05
(PID.TID 0000.0001) %MON trcstat_ptracer60_sd         =   1.3780694875415345E-04
(PID.TID 0000.0001) %MON trcstat_ptracer60_del2       =   0.0000000000000000E+00
(PID.TID 0000.0001) %MON trcstat_ptracer61_max        =   8.8153867181972601E-04
(PID.TID 0000.0001) %MON trcstat_ptracer61_min        =   0.0000000000000000E+00
(PID.TID 0000.0001) %MON trcstat_ptracer61_mean       =   2.6284899836225207E-05
(PID.TID 0000.0001) %MON trcstat_ptracer61_sd         =   1.3780694875415345E-04
(PID.TID 0000.0001) %MON trcstat_ptracer61_del2       =   0.0000000000000000E+00
(PID.TID 0000.0001) %MON trcstat_ptracer62_max        =   8.8153867181972601E-04
(PID.TID 0000.0001) %MON trcstat_ptracer62_min        =   0.0000000000000000E+00
(PID.TID 0000.0001) %MON trcstat_ptracer62_mean       =   2.6284899836225207E-05
(PID.TID 0000.0001) %MON trcstat_ptracer62_sd         =   1.3780694875415345E-04
(PID.TID 0000.0001) %MON trcstat_ptracer62_del2       =   0.0000000000000000E+00
(PID.TID 0000.0001) %MON trcstat_ptracer63_max        =   8.8153867181972601E-04
(PID.TID 0000.0001) %MON trcstat_ptracer63_min        =   0.0000000000000000E+00
(PID.TID 0000.0001) %MON trcstat_ptracer63_mean       =   2.6284899836225207E-05
(PID.TID 0000.0001) %MON trcstat_ptracer63_sd         =   1.3780694875415345E-04
(PID.TID 0000.0001) %MON trcstat_ptracer63_del2       =   0.0000000000000000E+00
(PID.TID 0000.0001) %MON trcstat_ptracer64_max        =   8.8153867181972601E-04
(PID.TID 0000.0001) %MON trcstat_ptracer64_min        =   0.0000000000000000E+00
(PID.TID 0000.0001) %MON trcstat_ptracer64_mean       =   2.6284899836225207E-05
(PID.TID 0000.0001) %MON trcstat_ptracer64_sd         =   1.3780694875415345E-04
(PID.TID 0000.0001) %MON trcstat_ptracer64_del2       =   0.0000000000000000E+00
(PID.TID 0000.0001) %MON trcstat_ptracer65_max        =   8.8153867181972601E-04
(PID.TID 0000.0001) %MON trcstat_ptracer65_min        =   0.0000000000000000E+00
(PID.TID 0000.0001) %MON trcstat_ptracer65_mean       =   2.6284899836225207E-05
(PID.TID 0000.0001) %MON trcstat_ptracer65_sd         =   1.3780694875415345E-04
(PID.TID 0000.0001) %MON trcstat_ptracer65_del2       =   0.0000000000000000E+00
(PID.TID 0000.0001) %MON trcstat_ptracer66_max        =   8.8153867181972601E-04
(PID.TID 0000.0001) %MON trcstat_ptracer66_min        =   0.0000000000000000E+00
(PID.TID 0000.0001) %MON trcstat_ptracer66_mean       =   2.6284899836225207E-05
(PID.TID 0000.0001) %MON trcstat_ptracer66_sd         =   1.3780694875415345E-04
(PID.TID 0000.0001) %MON trcstat_ptracer66_del2       =   0.0000000000000000E+00
(PID.TID 0000.0001) %MON trcstat_ptracer67_max        =   8.8153867181972601E-04
(PID.TID 0000.0001) %MON trcstat_ptracer67_min        =   0.0000000000000000E+00
(PID.TID 0000.0001) %MON trcstat_ptracer67_mean       =   2.6284899836225207E-05
(PID.TID 0000.0001) %MON trcstat_ptracer67_sd         =   1.3780694875415345E-04
(PID.TID 0000.0001) %MON trcstat_ptracer67_del2       =   0.0000000000000000E+00
(PID.TID 0000.0001) %MON trcstat_ptracer68_max        =   8.8153867181972601E-04
(PID.TID 0000.0001) %MON trcstat_ptracer68_min        =   0.0000000000000000E+00
(PID.TID 0000.0001) %MON trcstat_ptracer68_mean       =   2.6284899836225207E-05
(PID.TID 0000.0001) %MON trcstat_ptracer68_sd         =   1.3780694875415345E-04
(PID.TID 0000.0001) %MON trcstat_ptracer68_del2       =   0.0000000000000000E+00
(PID.TID 0000.0001) %MON trcstat_ptracer69_max        =   8.8153867181972601E-04
(PID.TID 0000.0001) %MON trcstat_ptracer69_min        =   0.0000000000000000E+00
(PID.TID 0000.0001) %MON trcstat_ptracer69_mean       =   2.6284899836225207E-05
(PID.TID 0000.0001) %MON trcstat_ptracer69_sd         =   1.3780694875415345E-04
(PID.TID 0000.0001) %MON trcstat_ptracer69_del2       =   0.0000000000000000E+00
(PID.TID 0000.0001) %MON trcstat_ptracer70_max        =   8.8153867181972601E-04
(PID.TID 0000.0001) %MON trcstat_ptracer70_min        =   0.0000000000000000E+00
(PID.TID 0000.0001) %MON trcstat_ptracer70_mean       =   2.6284899836225207E-05
(PID.TID 0000.0001) %MON trcstat_ptracer70_sd         =   1.3780694875415345E-04
(PID.TID 0000.0001) %MON trcstat_ptracer70_del2       =   0.0000000000000000E+00
(PID.TID 0000.0001) %MON trcstat_ptracer71_max        =   8.8153867181972601E-04
(PID.TID 0000.0001) %MON trcstat_ptracer71_min        =   0.0000000000000000E+00
(PID.TID 0000.0001) %MON trcstat_ptracer71_mean       =   2.6284899836225207E-05
(PID.TID 0000.0001) %MON trcstat_ptracer71_sd         =   1.3780694875415345E-04
(PID.TID 0000.0001) %MON trcstat_ptracer71_del2       =   0.0000000000000000E+00
(PID.TID 0000.0001) %MON trcstat_ptracer72_max        =   8.8153867181972601E-04
(PID.TID 0000.0001) %MON trcstat_ptracer72_min        =   0.0000000000000000E+00
(PID.TID 0000.0001) %MON trcstat_ptracer72_mean       =   2.6284899836225207E-05
(PID.TID 0000.0001) %MON trcstat_ptracer72_sd         =   1.3780694875415345E-04
(PID.TID 0000.0001) %MON trcstat_ptracer72_del2       =   0.0000000000000000E+00
(PID.TID 0000.0001) %MON trcstat_ptracer73_max        =   8.8153867181972601E-04
(PID.TID 0000.0001) %MON trcstat_ptracer73_min        =   0.0000000000000000E+00
(PID.TID 0000.0001) %MON trcstat_ptracer73_mean       =   2.6284899836225207E-05
(PID.TID 0000.0001) %MON trcstat_ptracer73_sd         =   1.3780694875415345E-04
(PID.TID 0000.0001) %MON trcstat_ptracer73_del2       =   0.0000000000000000E+00
(PID.TID 0000.0001) %MON trcstat_ptracer74_max        =   8.8153867181972601E-04
(PID.TID 0000.0001) %MON trcstat_ptracer74_min        =   0.0000000000000000E+00
(PID.TID 0000.0001) %MON trcstat_ptracer74_mean       =   2.6284899836225207E-05
(PID.TID 0000.0001) %MON trcstat_ptracer74_sd         =   1.3780694875415345E-04
(PID.TID 0000.0001) %MON trcstat_ptracer74_del2       =   0.0000000000000000E+00
(PID.TID 0000.0001) %MON trcstat_ptracer75_max        =   8.8153867181972601E-04
(PID.TID 0000.0001) %MON trcstat_ptracer75_min        =   0.0000000000000000E+00
(PID.TID 0000.0001) %MON trcstat_ptracer75_mean       =   2.6284899836225207E-05
(PID.TID 0000.0001) %MON trcstat_ptracer75_sd         =   1.3780694875415345E-04
(PID.TID 0000.0001) %MON trcstat_ptracer75_del2       =   0.0000000000000000E+00
(PID.TID 0000.0001) %MON trcstat_ptracer76_max        =   8.8153867181972601E-04
(PID.TID 0000.0001) %MON trcstat_ptracer76_min        =   0.0000000000000000E+00
(PID.TID 0000.0001) %MON trcstat_ptracer76_mean       =   2.6284899836225207E-05
(PID.TID 0000.0001) %MON trcstat_ptracer76_sd         =   1.3780694875415345E-04
(PID.TID 0000.0001) %MON trcstat_ptracer76_del2       =   0.0000000000000000E+00
(PID.TID 0000.0001) %MON trcstat_ptracer77_max        =   8.8153867181972601E-04
(PID.TID 0000.0001) %MON trcstat_ptracer77_min        =   0.0000000000000000E+00
(PID.TID 0000.0001) %MON trcstat_ptracer77_mean       =   2.6284899836225207E-05
(PID.TID 0000.0001) %MON trcstat_ptracer77_sd         =   1.3780694875415345E-04
(PID.TID 0000.0001) %MON trcstat_ptracer77_del2       =   0.0000000000000000E+00
(PID.TID 0000.0001) %MON trcstat_ptracer78_max        =   8.8153867181972601E-04
(PID.TID 0000.0001) %MON trcstat_ptracer78_min        =   0.0000000000000000E+00
(PID.TID 0000.0001) %MON trcstat_ptracer78_mean       =   2.6284899836225207E-05
(PID.TID 0000.0001) %MON trcstat_ptracer78_sd         =   1.3780694875415345E-04
(PID.TID 0000.0001) %MON trcstat_ptracer78_del2       =   0.0000000000000000E+00
(PID.TID 0000.0001) %MON trcstat_ptracer79_max        =   8.8153867181972601E-04
(PID.TID 0000.0001) %MON trcstat_ptracer79_min        =   0.0000000000000000E+00
(PID.TID 0000.0001) %MON trcstat_ptracer79_mean       =   2.6284899836225207E-05
(PID.TID 0000.0001) %MON trcstat_ptracer79_sd         =   1.3780694875415345E-04
(PID.TID 0000.0001) %MON trcstat_ptracer79_del2       =   0.0000000000000000E+00
(PID.TID 0000.0001) %MON trcstat_ptracer80_max        =   8.8153867181972601E-04
(PID.TID 0000.0001) %MON trcstat_ptracer80_min        =   0.0000000000000000E+00
(PID.TID 0000.0001) %MON trcstat_ptracer80_mean       =   2.6284899836225207E-05
(PID.TID 0000.0001) %MON trcstat_ptracer80_sd         =   1.3780694875415345E-04
(PID.TID 0000.0001) %MON trcstat_ptracer80_del2       =   0.0000000000000000E+00
(PID.TID 0000.0001) %MON trcstat_ptracer81_max        =   8.8153867181972601E-04
(PID.TID 0000.0001) %MON trcstat_ptracer81_min        =   0.0000000000000000E+00
(PID.TID 0000.0001) %MON trcstat_ptracer81_mean       =   2.6284899836225207E-05
(PID.TID 0000.0001) %MON trcstat_ptracer81_sd         =   1.3780694875415345E-04
(PID.TID 0000.0001) %MON trcstat_ptracer81_del2       =   0.0000000000000000E+00
(PID.TID 0000.0001) %MON trcstat_ptracer82_max        =   8.8153867181972601E-04
(PID.TID 0000.0001) %MON trcstat_ptracer82_min        =   0.0000000000000000E+00
(PID.TID 0000.0001) %MON trcstat_ptracer82_mean       =   2.6284899836225207E-05
(PID.TID 0000.0001) %MON trcstat_ptracer82_sd         =   1.3780694875415345E-04
(PID.TID 0000.0001) %MON trcstat_ptracer82_del2       =   0.0000000000000000E+00
(PID.TID 0000.0001) %MON trcstat_ptracer83_max        =   8.8153867181972601E-04
(PID.TID 0000.0001) %MON trcstat_ptracer83_min        =   0.0000000000000000E+00
(PID.TID 0000.0001) %MON trcstat_ptracer83_mean       =   2.6284899836225207E-05
(PID.TID 0000.0001) %MON trcstat_ptracer83_sd         =   1.3780694875415345E-04
(PID.TID 0000.0001) %MON trcstat_ptracer83_del2       =   0.0000000000000000E+00
(PID.TID 0000.0001) %MON trcstat_ptracer84_max        =   8.8153867181972601E-04
(PID.TID 0000.0001) %MON trcstat_ptracer84_min        =   0.0000000000000000E+00
(PID.TID 0000.0001) %MON trcstat_ptracer84_mean       =   2.6284899836225207E-05
(PID.TID 0000.0001) %MON trcstat_ptracer84_sd         =   1.3780694875415345E-04
(PID.TID 0000.0001) %MON trcstat_ptracer84_del2       =   0.0000000000000000E+00
(PID.TID 0000.0001) %MON trcstat_ptracer85_max        =   8.8153867181972601E-04
(PID.TID 0000.0001) %MON trcstat_ptracer85_min        =   0.0000000000000000E+00
(PID.TID 0000.0001) %MON trcstat_ptracer85_mean       =   2.6284899836225207E-05
(PID.TID 0000.0001) %MON trcstat_ptracer85_sd         =   1.3780694875415345E-04
(PID.TID 0000.0001) %MON trcstat_ptracer85_del2       =   0.0000000000000000E+00
(PID.TID 0000.0001) %MON trcstat_ptracer86_max        =   8.8153867181972601E-04
(PID.TID 0000.0001) %MON trcstat_ptracer86_min        =   0.0000000000000000E+00
(PID.TID 0000.0001) %MON trcstat_ptracer86_mean       =   2.6284899836225207E-05
(PID.TID 0000.0001) %MON trcstat_ptracer86_sd         =   1.3780694875415345E-04
(PID.TID 0000.0001) %MON trcstat_ptracer86_del2       =   0.0000000000000000E+00
(PID.TID 0000.0001) %MON trcstat_ptracer87_max        =   8.8153867181972601E-04
(PID.TID 0000.0001) %MON trcstat_ptracer87_min        =   0.0000000000000000E+00
(PID.TID 0000.0001) %MON trcstat_ptracer87_mean       =   2.6284899836225207E-05
(PID.TID 0000.0001) %MON trcstat_ptracer87_sd         =   1.3780694875415345E-04
(PID.TID 0000.0001) %MON trcstat_ptracer87_del2       =   0.0000000000000000E+00
(PID.TID 0000.0001) %MON trcstat_ptracer88_max        =   8.8153867181972601E-04
(PID.TID 0000.0001) %MON trcstat_ptracer88_min        =   0.0000000000000000E+00
(PID.TID 0000.0001) %MON trcstat_ptracer88_mean       =   2.6284899836225207E-05
(PID.TID 0000.0001) %MON trcstat_ptracer88_sd         =   1.3780694875415345E-04
(PID.TID 0000.0001) %MON trcstat_ptracer88_del2       =   0.0000000000000000E+00
(PID.TID 0000.0001) %MON trcstat_ptracer89_max        =   8.8153867181972601E-04
(PID.TID 0000.0001) %MON trcstat_ptracer89_min        =   0.0000000000000000E+00
(PID.TID 0000.0001) %MON trcstat_ptracer89_mean       =   2.6284899836225207E-05
(PID.TID 0000.0001) %MON trcstat_ptracer89_sd         =   1.3780694875415345E-04
(PID.TID 0000.0001) %MON trcstat_ptracer89_del2       =   0.0000000000000000E+00
(PID.TID 0000.0001) %MON trcstat_ptracer90_max        =   8.8153867181972601E-04
(PID.TID 0000.0001) %MON trcstat_ptracer90_min        =   0.0000000000000000E+00
(PID.TID 0000.0001) %MON trcstat_ptracer90_mean       =   2.6284899836225207E-05
(PID.TID 0000.0001) %MON trcstat_ptracer90_sd         =   1.3780694875415345E-04
(PID.TID 0000.0001) %MON trcstat_ptracer90_del2       =   0.0000000000000000E+00
(PID.TID 0000.0001) %MON trcstat_ptracer91_max        =   8.8153867181972601E-04
(PID.TID 0000.0001) %MON trcstat_ptracer91_min        =   0.0000000000000000E+00
(PID.TID 0000.0001) %MON trcstat_ptracer91_mean       =   2.6284899836225207E-05
(PID.TID 0000.0001) %MON trcstat_ptracer91_sd         =   1.3780694875415345E-04
(PID.TID 0000.0001) %MON trcstat_ptracer91_del2       =   0.0000000000000000E+00
(PID.TID 0000.0001) %MON trcstat_ptracer92_max        =   8.8153867181972601E-04
(PID.TID 0000.0001) %MON trcstat_ptracer92_min        =   0.0000000000000000E+00
(PID.TID 0000.0001) %MON trcstat_ptracer92_mean       =   2.6284899836225207E-05
(PID.TID 0000.0001) %MON trcstat_ptracer92_sd         =   1.3780694875415345E-04
(PID.TID 0000.0001) %MON trcstat_ptracer92_del2       =   0.0000000000000000E+00
(PID.TID 0000.0001) %MON trcstat_ptracer93_max        =   8.8153867181972601E-04
(PID.TID 0000.0001) %MON trcstat_ptracer93_min        =   0.0000000000000000E+00
(PID.TID 0000.0001) %MON trcstat_ptracer93_mean       =   2.6284899836225207E-05
(PID.TID 0000.0001) %MON trcstat_ptracer93_sd         =   1.3780694875415345E-04
(PID.TID 0000.0001) %MON trcstat_ptracer93_del2       =   0.0000000000000000E+00
(PID.TID 0000.0001) %MON trcstat_ptracer94_max        =   8.8153867181972601E-04
(PID.TID 0000.0001) %MON trcstat_ptracer94_min        =   0.0000000000000000E+00
(PID.TID 0000.0001) %MON trcstat_ptracer94_mean       =   2.6284899836225207E-05
(PID.TID 0000.0001) %MON trcstat_ptracer94_sd         =   1.3780694875415345E-04
(PID.TID 0000.0001) %MON trcstat_ptracer94_del2       =   0.0000000000000000E+00
(PID.TID 0000.0001) %MON trcstat_ptracer95_max        =   8.8153867181972601E-04
(PID.TID 0000.0001) %MON trcstat_ptracer95_min        =   0.0000000000000000E+00
(PID.TID 0000.0001) %MON trcstat_ptracer95_mean       =   2.6284899836225207E-05
(PID.TID 0000.0001) %MON trcstat_ptracer95_sd         =   1.3780694875415345E-04
(PID.TID 0000.0001) %MON trcstat_ptracer95_del2       =   0.0000000000000000E+00
(PID.TID 0000.0001) %MON trcstat_ptracer96_max        =   8.8153867181972601E-04
(PID.TID 0000.0001) %MON trcstat_ptracer96_min        =   0.0000000000000000E+00
(PID.TID 0000.0001) %MON trcstat_ptracer96_mean       =   2.6284899836225207E-05
(PID.TID 0000.0001) %MON trcstat_ptracer96_sd         =   1.3780694875415345E-04
(PID.TID 0000.0001) %MON trcstat_ptracer96_del2       =   0.0000000000000000E+00
(PID.TID 0000.0001) %MON trcstat_ptracer97_max        =   1.2432850748922419E-07
(PID.TID 0000.0001) %MON trcstat_ptracer97_min        =   0.0000000000000000E+00
(PID.TID 0000.0001) %MON trcstat_ptracer97_mean       =   1.6442399905699555E-08
(PID.TID 0000.0001) %MON trcstat_ptracer97_sd         =   3.0074086738691421E-08
(PID.TID 0000.0001) %MON trcstat_ptracer97_del2       =   0.0000000000000000E+00
(PID.TID 0000.0001) %MON trcstat_ptracer98_max        =   1.2432850748922419E-07
(PID.TID 0000.0001) %MON trcstat_ptracer98_min        =   0.0000000000000000E+00
(PID.TID 0000.0001) %MON trcstat_ptracer98_mean       =   1.6442399905699555E-08
(PID.TID 0000.0001) %MON trcstat_ptracer98_sd         =   3.0074086738691421E-08
(PID.TID 0000.0001) %MON trcstat_ptracer98_del2       =   0.0000000000000000E+00
(PID.TID 0000.0001) %MON time_tsnumber                =                     1
(PID.TID 0000.0001) %MON time_secondsf                =   3.6000000000000000E+03
(PID.TID 0000.0001) %MON dynstat_eta_max              =   0.0000000000000000E+00
(PID.TID 0000.0001) %MON dynstat_eta_min              =   0.0000000000000000E+00
(PID.TID 0000.0001) %MON dynstat_eta_mean             =   0.0000000000000000E+00
(PID.TID 0000.0001) %MON dynstat_eta_sd               =   0.0000000000000000E+00
(PID.TID 0000.0001) %MON dynstat_eta_del2             =   0.0000000000000000E+00
(PID.TID 0000.0001) %MON dynstat_uvel_max             =   0.0000000000000000E+00
(PID.TID 0000.0001) %MON dynstat_uvel_min             =   0.0000000000000000E+00
(PID.TID 0000.0001) %MON dynstat_uvel_mean            =   0.0000000000000000E+00
(PID.TID 0000.0001) %MON dynstat_uvel_sd              =   0.0000000000000000E+00
(PID.TID 0000.0001) %MON dynstat_uvel_del2            =   0.0000000000000000E+00
(PID.TID 0000.0001) %MON dynstat_vvel_max             =   0.0000000000000000E+00
(PID.TID 0000.0001) %MON dynstat_vvel_min             =   0.0000000000000000E+00
(PID.TID 0000.0001) %MON dynstat_vvel_mean            =   0.0000000000000000E+00
(PID.TID 0000.0001) %MON dynstat_vvel_sd              =   0.0000000000000000E+00
(PID.TID 0000.0001) %MON dynstat_vvel_del2            =   0.0000000000000000E+00
(PID.TID 0000.0001) %MON dynstat_wvel_max             =   0.0000000000000000E+00
(PID.TID 0000.0001) %MON dynstat_wvel_min             =   0.0000000000000000E+00
(PID.TID 0000.0001) %MON dynstat_wvel_mean            =   0.0000000000000000E+00
(PID.TID 0000.0001) %MON dynstat_wvel_sd              =   0.0000000000000000E+00
(PID.TID 0000.0001) %MON dynstat_wvel_del2            =   0.0000000000000000E+00
(PID.TID 0000.0001) %MON dynstat_theta_max            =   2.6335817374515290E+01
(PID.TID 0000.0001) %MON dynstat_theta_min            =   2.6737003185747747E+00
(PID.TID 0000.0001) %MON dynstat_theta_mean           =   5.4735670012030040E+00
(PID.TID 0000.0001) %MON dynstat_theta_sd             =   5.1970860626953339E+00
(PID.TID 0000.0001) %MON dynstat_theta_del2           =   0.0000000000000000E+00
(PID.TID 0000.0001) %MON dynstat_salt_max             =   3.5000000000000000E+01
(PID.TID 0000.0001) %MON dynstat_salt_min             =   3.5000000000000000E+01
(PID.TID 0000.0001) %MON dynstat_salt_mean            =   3.5000000000000007E+01
(PID.TID 0000.0001) %MON dynstat_salt_sd              =   7.1054273576010019E-15
(PID.TID 0000.0001) %MON dynstat_salt_del2            =   0.0000000000000000E+00
(PID.TID 0000.0001) %MON dynstat_sst_max              =   2.6335817374515290E+01
(PID.TID 0000.0001) %MON dynstat_sst_min              =   2.6335817374515290E+01
(PID.TID 0000.0001) %MON dynstat_sst_mean             =   2.6335817374515290E+01
(PID.TID 0000.0001) %MON dynstat_sst_sd               =   0.0000000000000000E+00
(PID.TID 0000.0001) %MON dynstat_sst_del2             =   0.0000000000000000E+00
(PID.TID 0000.0001) %MON dynstat_sss_max              =   3.5000000000000000E+01
(PID.TID 0000.0001) %MON dynstat_sss_min              =   3.5000000000000000E+01
(PID.TID 0000.0001) %MON dynstat_sss_mean             =   3.5000000000000000E+01
(PID.TID 0000.0001) %MON dynstat_sss_sd               =   0.0000000000000000E+00
(PID.TID 0000.0001) %MON dynstat_sss_del2             =   0.0000000000000000E+00
(PID.TID 0000.0001) %MON forcing_qnet_max             =   0.0000000000000000E+00
(PID.TID 0000.0001) %MON forcing_qnet_min             =   0.0000000000000000E+00
(PID.TID 0000.0001) %MON forcing_qnet_mean            =   0.0000000000000000E+00
(PID.TID 0000.0001) %MON forcing_qnet_sd              =   0.0000000000000000E+00
(PID.TID 0000.0001) %MON forcing_qnet_del2            =   0.0000000000000000E+00
(PID.TID 0000.0001) %MON forcing_qsw_max              =   0.0000000000000000E+00
(PID.TID 0000.0001) %MON forcing_qsw_min              =   0.0000000000000000E+00
(PID.TID 0000.0001) %MON forcing_qsw_mean             =   0.0000000000000000E+00
(PID.TID 0000.0001) %MON forcing_qsw_sd               =   0.0000000000000000E+00
(PID.TID 0000.0001) %MON forcing_qsw_del2             =   0.0000000000000000E+00
(PID.TID 0000.0001) %MON forcing_empmr_max            =   0.0000000000000000E+00
(PID.TID 0000.0001) %MON forcing_empmr_min            =   0.0000000000000000E+00
(PID.TID 0000.0001) %MON forcing_empmr_mean           =   0.0000000000000000E+00
(PID.TID 0000.0001) %MON forcing_empmr_sd             =   0.0000000000000000E+00
(PID.TID 0000.0001) %MON forcing_empmr_del2           =   0.0000000000000000E+00
(PID.TID 0000.0001) %MON forcing_fu_max               =   0.0000000000000000E+00
(PID.TID 0000.0001) %MON forcing_fu_min               =   0.0000000000000000E+00
(PID.TID 0000.0001) %MON forcing_fu_mean              =   0.0000000000000000E+00
(PID.TID 0000.0001) %MON forcing_fu_sd                =   0.0000000000000000E+00
(PID.TID 0000.0001) %MON forcing_fu_del2              =   0.0000000000000000E+00
(PID.TID 0000.0001) %MON forcing_fv_max               =   0.0000000000000000E+00
(PID.TID 0000.0001) %MON forcing_fv_min               =   0.0000000000000000E+00
(PID.TID 0000.0001) %MON forcing_fv_mean              =   0.0000000000000000E+00
(PID.TID 0000.0001) %MON forcing_fv_sd                =   0.0000000000000000E+00
(PID.TID 0000.0001) %MON forcing_fv_del2              =   0.0000000000000000E+00
(PID.TID 0000.0001) %MON advcfl_uvel_max              =   0.0000000000000000E+00
(PID.TID 0000.0001) %MON advcfl_vvel_max              =   0.0000000000000000E+00
(PID.TID 0000.0001) %MON advcfl_wvel_max              =   0.0000000000000000E+00
(PID.TID 0000.0001) %MON advcfl_W_hf_max              =   0.0000000000000000E+00
(PID.TID 0000.0001) %MON pe_b_mean                    =   0.0000000000000000E+00
(PID.TID 0000.0001) %MON ke_max                       =   0.0000000000000000E+00
(PID.TID 0000.0001) %MON ke_mean                      =   0.0000000000000000E+00
(PID.TID 0000.0001) %MON ke_vol                       =   4.1199767883484609E+13
(PID.TID 0000.0001) %MON vort_r_min                   =   0.0000000000000000E+00
(PID.TID 0000.0001) %MON vort_r_max                   =   0.0000000000000000E+00
(PID.TID 0000.0001) %MON vort_a_mean                  =  -4.5067801836624727E-05
(PID.TID 0000.0001) %MON vort_a_sd                    =  -4.1359030627651384E-25
(PID.TID 0000.0001) %MON vort_p_mean                  =  -4.5067801836624727E-05
(PID.TID 0000.0001) %MON vort_p_sd                    =   0.0000000000000000E+00
(PID.TID 0000.0001) %MON surfExpan_theta_mean         =   0.0000000000000000E+00
(PID.TID 0000.0001) %MON surfExpan_salt_mean          =   0.0000000000000000E+00
(PID.TID 0000.0001) %MON trcstat_ptracer01_max        =                      NAN
(PID.TID 0000.0001) %MON trcstat_ptracer01_min        =                      NAN
(PID.TID 0000.0001) %MON trcstat_ptracer01_mean       =                      NAN
(PID.TID 0000.0001) %MON trcstat_ptracer01_sd         =                      NAN
(PID.TID 0000.0001) %MON trcstat_ptracer01_del2       =                      NAN
(PID.TID 0000.0001) %MON trcstat_ptracer02_max        =   2.3480167685233130E-02
(PID.TID 0000.0001) %MON trcstat_ptracer02_min        =   1.7199487607700170E-07
(PID.TID 0000.0001) %MON trcstat_ptracer02_mean       =   5.6253041774119016E-04
(PID.TID 0000.0001) %MON trcstat_ptracer02_sd         =   3.0197680211346699E-03
(PID.TID 0000.0001) %MON trcstat_ptracer02_del2       =   0.0000000000000000E+00
(PID.TID 0000.0001) %MON trcstat_ptracer03_max        =   1.8440405082168206E-02
(PID.TID 0000.0001) %MON trcstat_ptracer03_min        =   3.8791489719393813E-06
(PID.TID 0000.0001) %MON trcstat_ptracer03_mean       =   6.4466913051278098E-04
(PID.TID 0000.0001) %MON trcstat_ptracer03_sd         =   2.0412890566492954E-03
(PID.TID 0000.0001) %MON trcstat_ptracer03_del2       =   0.0000000000000000E+00
(PID.TID 0000.0001) %MON trcstat_ptracer04_max        =   3.3903497946886560E+01
(PID.TID 0000.0001) %MON trcstat_ptracer04_min        =   4.6417536541143584E-02
(PID.TID 0000.0001) %MON trcstat_ptracer04_mean       =   2.3502392219276256E+01
(PID.TID 0000.0001) %MON trcstat_ptracer04_sd         =   7.8161955640281420E+00
(PID.TID 0000.0001) %MON trcstat_ptracer04_del2       =   0.0000000000000000E+00
(PID.TID 0000.0001) %MON trcstat_ptracer05_max        =   2.2436998099663867E+00
(PID.TID 0000.0001) %MON trcstat_ptracer05_min        =   2.1025300621350776E-01
(PID.TID 0000.0001) %MON trcstat_ptracer05_mean       =   1.5821338295277225E+00
(PID.TID 0000.0001) %MON trcstat_ptracer05_sd         =   4.6735024891786925E-01
(PID.TID 0000.0001) %MON trcstat_ptracer05_del2       =   0.0000000000000000E+00
(PID.TID 0000.0001) %MON trcstat_ptracer06_max        =   3.9387401347897352E+01
(PID.TID 0000.0001) %MON trcstat_ptracer06_min        =   1.2248048835385952E+00
(PID.TID 0000.0001) %MON trcstat_ptracer06_mean       =   2.9621889553276993E+01
(PID.TID 0000.0001) %MON trcstat_ptracer06_sd         =   1.1270586409152321E+01
(PID.TID 0000.0001) %MON trcstat_ptracer06_del2       =   0.0000000000000000E+00
(PID.TID 0000.0001) %MON trcstat_ptracer07_max        =   1.3001303095732989E-03
(PID.TID 0000.0001) %MON trcstat_ptracer07_min        =   1.2999853926150390E-03
(PID.TID 0000.0001) %MON trcstat_ptracer07_mean       =   1.2999858887290505E-03
(PID.TID 0000.0001) %MON trcstat_ptracer07_sd         =   7.7445835589694979E-09
(PID.TID 0000.0001) %MON trcstat_ptracer07_del2       =   0.0000000000000000E+00
(PID.TID 0000.0001) %MON trcstat_ptracer08_max        =   6.1534280588404100E-01
(PID.TID 0000.0001) %MON trcstat_ptracer08_min        =   1.1494034532033480E-07
(PID.TID 0000.0001) %MON trcstat_ptracer08_mean       =   2.5783057488242403E-02
(PID.TID 0000.0001) %MON trcstat_ptracer08_sd         =   1.1097446998509486E-01
(PID.TID 0000.0001) %MON trcstat_ptracer08_del2       =   0.0000000000000000E+00
(PID.TID 0000.0001) %MON trcstat_ptracer09_max        =   8.2045707451205471E-02
(PID.TID 0000.0001) %MON trcstat_ptracer09_min        =   1.5325379376044639E-08
(PID.TID 0000.0001) %MON trcstat_ptracer09_mean       =   3.4377409984323202E-03
(PID.TID 0000.0001) %MON trcstat_ptracer09_sd         =   1.4796595998012647E-02
(PID.TID 0000.0001) %MON trcstat_ptracer09_del2       =   0.0000000000000000E+00
(PID.TID 0000.0001) %MON trcstat_ptracer10_max        =   5.1278567157003420E-03
(PID.TID 0000.0001) %MON trcstat_ptracer10_min        =   9.5783621100278997E-10
(PID.TID 0000.0001) %MON trcstat_ptracer10_mean       =   2.1485881240202001E-04
(PID.TID 0000.0001) %MON trcstat_ptracer10_sd         =   9.2478724987579046E-04
(PID.TID 0000.0001) %MON trcstat_ptracer10_del2       =   0.0000000000000000E+00
(PID.TID 0000.0001) %MON trcstat_ptracer11_max        =   5.1278567046640079E-06
(PID.TID 0000.0001) %MON trcstat_ptracer11_min        =   9.5783610368124883E-13
(PID.TID 0000.0001) %MON trcstat_ptracer11_mean       =   2.1485881270883429E-07
(PID.TID 0000.0001) %MON trcstat_ptracer11_sd         =   9.2478724952821931E-07
(PID.TID 0000.0001) %MON trcstat_ptracer11_del2       =   0.0000000000000000E+00
(PID.TID 0000.0001) %MON trcstat_ptracer12_max        =   3.2667984171676205E-02
(PID.TID 0000.0001) %MON trcstat_ptracer12_min        =   1.4086367136037866E-04
(PID.TID 0000.0001) %MON trcstat_ptracer12_mean       =   9.4670153887028569E-03
(PID.TID 0000.0001) %MON trcstat_ptracer12_sd         =   1.1587812571471696E-02
(PID.TID 0000.0001) %MON trcstat_ptracer12_del2       =   0.0000000000000000E+00
(PID.TID 0000.0001) %MON trcstat_ptracer13_max        =   4.3557312228901610E-03
(PID.TID 0000.0001) %MON trcstat_ptracer13_min        =   1.8781822848050488E-05
(PID.TID 0000.0001) %MON trcstat_ptracer13_mean       =   1.2622687184937142E-03
(PID.TID 0000.0001) %MON trcstat_ptracer13_sd         =   1.5450416761962262E-03
(PID.TID 0000.0001) %MON trcstat_ptracer13_del2       =   0.0000000000000000E+00
(PID.TID 0000.0001) %MON trcstat_ptracer14_max        =   2.7223320143063506E-04
(PID.TID 0000.0001) %MON trcstat_ptracer14_min        =   1.1738639280031555E-06
(PID.TID 0000.0001) %MON trcstat_ptracer14_mean       =   7.8891794905857135E-05
(PID.TID 0000.0001) %MON trcstat_ptracer14_sd         =   9.6565104762264139E-05
(PID.TID 0000.0001) %MON trcstat_ptracer14_del2       =   0.0000000000000000E+00
(PID.TID 0000.0001) %MON trcstat_ptracer15_max        =   1.6249560323348945E-02
(PID.TID 0000.0001) %MON trcstat_ptracer15_min        =   1.1386925448277799E-03
(PID.TID 0000.0001) %MON trcstat_ptracer15_mean       =   5.4889823684651342E-03
(PID.TID 0000.0001) %MON trcstat_ptracer15_sd         =   5.1715467239950349E-03
(PID.TID 0000.0001) %MON trcstat_ptracer15_del2       =   0.0000000000000000E+00
(PID.TID 0000.0001) %MON trcstat_ptracer16_max        =   2.7223321719345594E-07
(PID.TID 0000.0001) %MON trcstat_ptracer16_min        =   1.1738637993409111E-09
(PID.TID 0000.0001) %MON trcstat_ptracer16_mean       =   7.8891795432038208E-08
(PID.TID 0000.0001) %MON trcstat_ptracer16_sd         =   9.6565106819749876E-08
(PID.TID 0000.0001) %MON trcstat_ptracer16_del2       =   0.0000000000000000E+00
(PID.TID 0000.0001) %MON trcstat_ptracer17_max        =                      NAN
(PID.TID 0000.0001) %MON trcstat_ptracer17_min        =                      NAN
(PID.TID 0000.0001) %MON trcstat_ptracer17_mean       =                      NAN
(PID.TID 0000.0001) %MON trcstat_ptracer17_sd         =                      NAN
(PID.TID 0000.0001) %MON trcstat_ptracer17_del2       =                      NAN
(PID.TID 0000.0001) %MON trcstat_ptracer18_max        =   5.1117095361242247E-03
(PID.TID 0000.0001) %MON trcstat_ptracer18_min        =   1.9547677775567143E-11
(PID.TID 0000.0001) %MON trcstat_ptracer18_mean       =   2.1463352645401706E-04
(PID.TID 0000.0001) %MON trcstat_ptracer18_sd         =   9.2391847265475293E-04
(PID.TID 0000.0001) %MON trcstat_ptracer18_del2       =   0.0000000000000000E+00
(PID.TID 0000.0001) %MON trcstat_ptracer19_max        =   8.7784040723648635E-04
(PID.TID 0000.0001) %MON trcstat_ptracer19_min        =   1.1455106270729970E-34
(PID.TID 0000.0001) %MON trcstat_ptracer19_mean       =   2.6175379415806969E-05
(PID.TID 0000.0001) %MON trcstat_ptracer19_sd         =   1.3721453424017494E-04
(PID.TID 0000.0001) %MON trcstat_ptracer19_del2       =   0.0000000000000000E+00
(PID.TID 0000.0001) %MON trcstat_ptracer20_max        =   8.7785894917749704E-04
(PID.TID 0000.0001) %MON trcstat_ptracer20_min        =   3.9452493772007623E-37
(PID.TID 0000.0001) %MON trcstat_ptracer20_mean       =   2.6193743362461784E-05
(PID.TID 0000.0001) %MON trcstat_ptracer20_sd         =   1.3734201620561434E-04
(PID.TID 0000.0001) %MON trcstat_ptracer20_del2       =   0.0000000000000000E+00
(PID.TID 0000.0001) %MON trcstat_ptracer21_max        =   8.7784040723648635E-04
(PID.TID 0000.0001) %MON trcstat_ptracer21_min        =   1.1455106270729970E-34
(PID.TID 0000.0001) %MON trcstat_ptracer21_mean       =   2.6175379415807281E-05
(PID.TID 0000.0001) %MON trcstat_ptracer21_sd         =   1.3721453424017679E-04
(PID.TID 0000.0001) %MON trcstat_ptracer21_del2       =   0.0000000000000000E+00
(PID.TID 0000.0001) %MON trcstat_ptracer22_max        =   8.7784040723648635E-04
(PID.TID 0000.0001) %MON trcstat_ptracer22_min        =   1.1455106270729970E-34
(PID.TID 0000.0001) %MON trcstat_ptracer22_mean       =   2.6203935428304416E-05
(PID.TID 0000.0001) %MON trcstat_ptracer22_sd         =   1.3738571903528768E-04
(PID.TID 0000.0001) %MON trcstat_ptracer22_del2       =   0.0000000000000000E+00
(PID.TID 0000.0001) %MON trcstat_ptracer23_max        =   8.7785894917749704E-04
(PID.TID 0000.0001) %MON trcstat_ptracer23_min        =   3.9452493772007623E-37
(PID.TID 0000.0001) %MON trcstat_ptracer23_mean       =   2.6211437905919669E-05
(PID.TID 0000.0001) %MON trcstat_ptracer23_sd         =   1.3744859116035648E-04
(PID.TID 0000.0001) %MON trcstat_ptracer23_del2       =   0.0000000000000000E+00
(PID.TID 0000.0001) %MON trcstat_ptracer24_max        =   8.7785894917749704E-04
(PID.TID 0000.0001) %MON trcstat_ptracer24_min        =   3.9452493772007623E-37
(PID.TID 0000.0001) %MON trcstat_ptracer24_mean       =   2.6175379413903713E-05
(PID.TID 0000.0001) %MON trcstat_ptracer24_sd         =   1.3723205447388419E-04
(PID.TID 0000.0001) %MON trcstat_ptracer24_del2       =   0.0000000000000000E+00
(PID.TID 0000.0001) %MON trcstat_ptracer25_max        =   8.7785894917749704E-04
(PID.TID 0000.0001) %MON trcstat_ptracer25_min        =   3.9452493772007623E-37
(PID.TID 0000.0001) %MON trcstat_ptracer25_mean       =   2.6185053654303081E-05
(PID.TID 0000.0001) %MON trcstat_ptracer25_sd         =   1.3728983058479454E-04
(PID.TID 0000.0001) %MON trcstat_ptracer25_del2       =   0.0000000000000000E+00
(PID.TID 0000.0001) %MON trcstat_ptracer26_max        =   8.7785894917749704E-04
(PID.TID 0000.0001) %MON trcstat_ptracer26_min        =   3.9452493772007623E-37
(PID.TID 0000.0001) %MON trcstat_ptracer26_mean       =   2.6175379413902954E-05
(PID.TID 0000.0001) %MON trcstat_ptracer26_sd         =   1.3723205447387966E-04
(PID.TID 0000.0001) %MON trcstat_ptracer26_del2       =   0.0000000000000000E+00
(PID.TID 0000.0001) %MON trcstat_ptracer27_max        =   8.7785894917749704E-04
(PID.TID 0000.0001) %MON trcstat_ptracer27_min        =   3.9452493772007623E-37
(PID.TID 0000.0001) %MON trcstat_ptracer27_mean       =   2.6176125500408946E-05
(PID.TID 0000.0001) %MON trcstat_ptracer27_sd         =   1.3723658101162325E-04
(PID.TID 0000.0001) %MON trcstat_ptracer27_del2       =   0.0000000000000000E+00
(PID.TID 0000.0001) %MON trcstat_ptracer28_max        =   8.7785894917749704E-04
(PID.TID 0000.0001) %MON trcstat_ptracer28_min        =   3.9452493772007623E-37
(PID.TID 0000.0001) %MON trcstat_ptracer28_mean       =   2.6214653583248923E-05
(PID.TID 0000.0001) %MON trcstat_ptracer28_sd         =   1.3746783015552896E-04
(PID.TID 0000.0001) %MON trcstat_ptracer28_del2       =   0.0000000000000000E+00
(PID.TID 0000.0001) %MON trcstat_ptracer29_max        =   8.7785894917749704E-04
(PID.TID 0000.0001) %MON trcstat_ptracer29_min        =   3.9452493772007623E-37
(PID.TID 0000.0001) %MON trcstat_ptracer29_mean       =   2.6175379413904895E-05
(PID.TID 0000.0001) %MON trcstat_ptracer29_sd         =   1.3723205447389132E-04
(PID.TID 0000.0001) %MON trcstat_ptracer29_del2       =   0.0000000000000000E+00
(PID.TID 0000.0001) %MON trcstat_ptracer30_max        =   8.7785894917749704E-04
(PID.TID 0000.0001) %MON trcstat_ptracer30_min        =   3.9452493772007623E-37
(PID.TID 0000.0001) %MON trcstat_ptracer30_mean       =   2.6175379413902937E-05
(PID.TID 0000.0001) %MON trcstat_ptracer30_sd         =   1.3723205447387955E-04
(PID.TID 0000.0001) %MON trcstat_ptracer30_del2       =   0.0000000000000000E+00
(PID.TID 0000.0001) %MON trcstat_ptracer31_max        =   8.7784040716841895E-04
(PID.TID 0000.0001) %MON trcstat_ptracer31_min        =   1.1455106270729970E-34
(PID.TID 0000.0001) %MON trcstat_ptracer31_mean       =   2.6175379413904604E-05
(PID.TID 0000.0001) %MON trcstat_ptracer31_sd         =   1.3721453422993086E-04
(PID.TID 0000.0001) %MON trcstat_ptracer31_del2       =   0.0000000000000000E+00
(PID.TID 0000.0001) %MON trcstat_ptracer32_max        =   8.7785894917749704E-04
(PID.TID 0000.0001) %MON trcstat_ptracer32_min        =   3.9452493772007623E-37
(PID.TID 0000.0001) %MON trcstat_ptracer32_mean       =   2.6175379413903147E-05
(PID.TID 0000.0001) %MON trcstat_ptracer32_sd         =   1.3723205447388083E-04
(PID.TID 0000.0001) %MON trcstat_ptracer32_del2       =   0.0000000000000000E+00
(PID.TID 0000.0001) %MON trcstat_ptracer33_max        =   8.7785894917749704E-04
(PID.TID 0000.0001) %MON trcstat_ptracer33_min        =   3.9452493772007623E-37
(PID.TID 0000.0001) %MON trcstat_ptracer33_mean       =   2.6207271267690976E-05
(PID.TID 0000.0001) %MON trcstat_ptracer33_sd         =   1.3742310174919001E-04
(PID.TID 0000.0001) %MON trcstat_ptracer33_del2       =   0.0000000000000000E+00
(PID.TID 0000.0001) %MON trcstat_ptracer34_max        =   8.7784040723648635E-04
(PID.TID 0000.0001) %MON trcstat_ptracer34_min        =   1.1455106270729970E-34
(PID.TID 0000.0001) %MON trcstat_ptracer34_mean       =   2.6175379415807447E-05
(PID.TID 0000.0001) %MON trcstat_ptracer34_sd         =   1.3721453424017787E-04
(PID.TID 0000.0001) %MON trcstat_ptracer34_del2       =   0.0000000000000000E+00
(PID.TID 0000.0001) %MON trcstat_ptracer35_max        =   8.7784040723648635E-04
(PID.TID 0000.0001) %MON trcstat_ptracer35_min        =   1.1455106270729970E-34
(PID.TID 0000.0001) %MON trcstat_ptracer35_mean       =   2.6175379415807447E-05
(PID.TID 0000.0001) %MON trcstat_ptracer35_sd         =   1.3721453424017784E-04
(PID.TID 0000.0001) %MON trcstat_ptracer35_del2       =   0.0000000000000000E+00
(PID.TID 0000.0001) %MON trcstat_ptracer36_max        =   8.7785894917749704E-04
(PID.TID 0000.0001) %MON trcstat_ptracer36_min        =   3.9452493772007623E-37
(PID.TID 0000.0001) %MON trcstat_ptracer36_mean       =   2.6175379413905065E-05
(PID.TID 0000.0001) %MON trcstat_ptracer36_sd         =   1.3723205447389235E-04
(PID.TID 0000.0001) %MON trcstat_ptracer36_del2       =   0.0000000000000000E+00
(PID.TID 0000.0001) %MON trcstat_ptracer37_max        =   8.7784040723648635E-04
(PID.TID 0000.0001) %MON trcstat_ptracer37_min        =   1.1455106270729970E-34
(PID.TID 0000.0001) %MON trcstat_ptracer37_mean       =   2.6188531602901219E-05
(PID.TID 0000.0001) %MON trcstat_ptracer37_sd         =   1.3729339306011438E-04
(PID.TID 0000.0001) %MON trcstat_ptracer37_del2       =   0.0000000000000000E+00
(PID.TID 0000.0001) %MON trcstat_ptracer38_max        =   8.7784040716841895E-04
(PID.TID 0000.0001) %MON trcstat_ptracer38_min        =   1.1455106270729970E-34
(PID.TID 0000.0001) %MON trcstat_ptracer38_mean       =   2.6175379413904956E-05
(PID.TID 0000.0001) %MON trcstat_ptracer38_sd         =   1.3721453422993303E-04
(PID.TID 0000.0001) %MON trcstat_ptracer38_del2       =   0.0000000000000000E+00
(PID.TID 0000.0001) %MON trcstat_ptracer39_max        =   8.7784040716841895E-04
(PID.TID 0000.0001) %MON trcstat_ptracer39_min        =   1.1455106270729970E-34
(PID.TID 0000.0001) %MON trcstat_ptracer39_mean       =   2.6176947664059569E-05
(PID.TID 0000.0001) %MON trcstat_ptracer39_sd         =   1.3722401863620608E-04
(PID.TID 0000.0001) %MON trcstat_ptracer39_del2       =   0.0000000000000000E+00
(PID.TID 0000.0001) %MON trcstat_ptracer40_max        =   8.7784040723648635E-04
(PID.TID 0000.0001) %MON trcstat_ptracer40_min        =   1.1455106270729970E-34
(PID.TID 0000.0001) %MON trcstat_ptracer40_mean       =   2.6213282339285840E-05
(PID.TID 0000.0001) %MON trcstat_ptracer40_sd         =   1.3744166732512943E-04
(PID.TID 0000.0001) %MON trcstat_ptracer40_del2       =   0.0000000000000000E+00
(PID.TID 0000.0001) %MON trcstat_ptracer41_max        =   8.7785894917749704E-04
(PID.TID 0000.0001) %MON trcstat_ptracer41_min        =   3.9452493772007623E-37
(PID.TID 0000.0001) %MON trcstat_ptracer41_mean       =   2.6175379413903554E-05
(PID.TID 0000.0001) %MON trcstat_ptracer41_sd         =   1.3723205447388329E-04
(PID.TID 0000.0001) %MON trcstat_ptracer41_del2       =   0.0000000000000000E+00
(PID.TID 0000.0001) %MON trcstat_ptracer42_max        =   8.7784040716841895E-04
(PID.TID 0000.0001) %MON trcstat_ptracer42_min        =   1.1455106270729970E-34
(PID.TID 0000.0001) %MON trcstat_ptracer42_mean       =   2.6175379413904235E-05
(PID.TID 0000.0001) %MON trcstat_ptracer42_sd         =   1.3721453422992866E-04
(PID.TID 0000.0001) %MON trcstat_ptracer42_del2       =   0.0000000000000000E+00
(PID.TID 0000.0001) %MON trcstat_ptracer43_max        =   8.7785894917749704E-04
(PID.TID 0000.0001) %MON trcstat_ptracer43_min        =   3.9452493772007623E-37
(PID.TID 0000.0001) %MON trcstat_ptracer43_mean       =   2.6175379413903035E-05
(PID.TID 0000.0001) %MON trcstat_ptracer43_sd         =   1.3723205447388009E-04
(PID.TID 0000.0001) %MON trcstat_ptracer43_del2       =   0.0000000000000000E+00
(PID.TID 0000.0001) %MON trcstat_ptracer44_max        =   8.7785894917749704E-04
(PID.TID 0000.0001) %MON trcstat_ptracer44_min        =   3.9452493772007623E-37
(PID.TID 0000.0001) %MON trcstat_ptracer44_mean       =   2.6175379413902873E-05
(PID.TID 0000.0001) %MON trcstat_ptracer44_sd         =   1.3723205447387915E-04
(PID.TID 0000.0001) %MON trcstat_ptracer44_del2       =   0.0000000000000000E+00
(PID.TID 0000.0001) %MON trcstat_ptracer45_max        =   8.7785894917749704E-04
(PID.TID 0000.0001) %MON trcstat_ptracer45_min        =   3.9452493772007623E-37
(PID.TID 0000.0001) %MON trcstat_ptracer45_mean       =   2.6175379413903134E-05
(PID.TID 0000.0001) %MON trcstat_ptracer45_sd         =   1.3723205447388075E-04
(PID.TID 0000.0001) %MON trcstat_ptracer45_del2       =   0.0000000000000000E+00
(PID.TID 0000.0001) %MON trcstat_ptracer46_max        =   8.7785894917749704E-04
(PID.TID 0000.0001) %MON trcstat_ptracer46_min        =   3.9452493772007623E-37
(PID.TID 0000.0001) %MON trcstat_ptracer46_mean       =   2.6175379413903123E-05
(PID.TID 0000.0001) %MON trcstat_ptracer46_sd         =   1.3723205447388066E-04
(PID.TID 0000.0001) %MON trcstat_ptracer46_del2       =   0.0000000000000000E+00
(PID.TID 0000.0001) %MON trcstat_ptracer47_max        =   8.7784040716841895E-04
(PID.TID 0000.0001) %MON trcstat_ptracer47_min        =   1.1455106270729970E-34
(PID.TID 0000.0001) %MON trcstat_ptracer47_mean       =   2.6213110382796400E-05
(PID.TID 0000.0001) %MON trcstat_ptracer47_sd         =   1.3744065952940932E-04
(PID.TID 0000.0001) %MON trcstat_ptracer47_del2       =   0.0000000000000000E+00
(PID.TID 0000.0001) %MON trcstat_ptracer48_max        =   8.7785894917749704E-04
(PID.TID 0000.0001) %MON trcstat_ptracer48_min        =   3.9452493772007623E-37
(PID.TID 0000.0001) %MON trcstat_ptracer48_mean       =   2.6175379413905448E-05
(PID.TID 0000.0001) %MON trcstat_ptracer48_sd         =   1.3723205447389468E-04
(PID.TID 0000.0001) %MON trcstat_ptracer48_del2       =   0.0000000000000000E+00
(PID.TID 0000.0001) %MON trcstat_ptracer49_max        =   8.7784040716841895E-04
(PID.TID 0000.0001) %MON trcstat_ptracer49_min        =   1.1455106270729970E-34
(PID.TID 0000.0001) %MON trcstat_ptracer49_mean       =   2.6214142381195569E-05
(PID.TID 0000.0001) %MON trcstat_ptracer49_sd         =   1.3744681664184621E-04
(PID.TID 0000.0001) %MON trcstat_ptracer49_del2       =   0.0000000000000000E+00
(PID.TID 0000.0001) %MON trcstat_ptracer50_max        =   8.7785894917749704E-04
(PID.TID 0000.0001) %MON trcstat_ptracer50_min        =   3.9452493772007623E-37
[...]
(PID.TID 0000.0001) %MON trcstat_ptracer49_del2       =   0.0000000000000000E+00
(PID.TID 0000.0001) %MON trcstat_ptracer50_max        =   8.6691171315006032E-04
(PID.TID 0000.0001) %MON trcstat_ptracer50_min        =   1.3739850072295993E-35
(PID.TID 0000.0001) %MON trcstat_ptracer50_mean       =   2.5963167635411962E-05
(PID.TID 0000.0001) %MON trcstat_ptracer50_sd         =   1.3620889817754365E-04
(PID.TID 0000.0001) %MON trcstat_ptracer50_del2       =   0.0000000000000000E+00
(PID.TID 0000.0001) %MON trcstat_ptracer51_max        =   8.6683866356767486E-04
(PID.TID 0000.0001) %MON trcstat_ptracer51_min        =   1.6992725818008525E-27
(PID.TID 0000.0001) %MON trcstat_ptracer51_mean       =   2.5914279287789841E-05
(PID.TID 0000.0001) %MON trcstat_ptracer51_sd         =   1.3584108367029445E-04
(PID.TID 0000.0001) %MON trcstat_ptracer51_del2       =   0.0000000000000000E+00
(PID.TID 0000.0001) %MON trcstat_ptracer52_max        =   8.6691171381646562E-04
(PID.TID 0000.0001) %MON trcstat_ptracer52_min        =   1.3739850072295993E-35
(PID.TID 0000.0001) %MON trcstat_ptracer52_mean       =   2.5982094272600156E-05
(PID.TID 0000.0001) %MON trcstat_ptracer52_sd         =   1.3632349728297756E-04
(PID.TID 0000.0001) %MON trcstat_ptracer52_del2       =   0.0000000000000000E+00
(PID.TID 0000.0001) %MON trcstat_ptracer53_max        =   8.6691171288648579E-04
(PID.TID 0000.0001) %MON trcstat_ptracer53_min        =   1.3739850072295993E-35
(PID.TID 0000.0001) %MON trcstat_ptracer53_mean       =   2.5849548560045176E-05
(PID.TID 0000.0001) %MON trcstat_ptracer53_sd         =   1.3552172203845842E-04
(PID.TID 0000.0001) %MON trcstat_ptracer53_del2       =   0.0000000000000000E+00
(PID.TID 0000.0001) %MON trcstat_ptracer54_max        =   8.6683865064327741E-04
(PID.TID 0000.0001) %MON trcstat_ptracer54_min        =   1.6992725818009077E-27
(PID.TID 0000.0001) %MON trcstat_ptracer54_mean       =   2.5849548567544968E-05
(PID.TID 0000.0001) %MON trcstat_ptracer54_sd         =   1.3545288047748296E-04
(PID.TID 0000.0001) %MON trcstat_ptracer54_del2       =   0.0000000000000000E+00
(PID.TID 0000.0001) %MON trcstat_ptracer55_max        =   8.6691171288648579E-04
(PID.TID 0000.0001) %MON trcstat_ptracer55_min        =   1.3739850072295993E-35
(PID.TID 0000.0001) %MON trcstat_ptracer55_mean       =   2.5849548560044119E-05
(PID.TID 0000.0001) %MON trcstat_ptracer55_sd         =   1.3552172203845205E-04
(PID.TID 0000.0001) %MON trcstat_ptracer55_del2       =   0.0000000000000000E+00
(PID.TID 0000.0001) %MON trcstat_ptracer56_max        =   8.6691171288648579E-04
(PID.TID 0000.0001) %MON trcstat_ptracer56_min        =   1.3739850072295993E-35
(PID.TID 0000.0001) %MON trcstat_ptracer56_mean       =   2.5849548560050326E-05
(PID.TID 0000.0001) %MON trcstat_ptracer56_sd         =   1.3552172203848940E-04
(PID.TID 0000.0001) %MON trcstat_ptracer56_del2       =   0.0000000000000000E+00
(PID.TID 0000.0001) %MON trcstat_ptracer57_max        =   8.6691171288648579E-04
(PID.TID 0000.0001) %MON trcstat_ptracer57_min        =   1.3739850072295993E-35
(PID.TID 0000.0001) %MON trcstat_ptracer57_mean       =   2.5849548560046901E-05
(PID.TID 0000.0001) %MON trcstat_ptracer57_sd         =   1.3552172203846877E-04
(PID.TID 0000.0001) %MON trcstat_ptracer57_del2       =   0.0000000000000000E+00
(PID.TID 0000.0001) %MON trcstat_ptracer58_max        =   8.6683865064327741E-04
(PID.TID 0000.0001) %MON trcstat_ptracer58_min        =   1.6992725818009077E-27
(PID.TID 0000.0001) %MON trcstat_ptracer58_mean       =   2.5849548567549102E-05
(PID.TID 0000.0001) %MON trcstat_ptracer58_sd         =   1.3545288047750784E-04
(PID.TID 0000.0001) %MON trcstat_ptracer58_del2       =   0.0000000000000000E+00
(PID.TID 0000.0001) %MON trcstat_ptracer59_max        =   8.6691171288648579E-04
(PID.TID 0000.0001) %MON trcstat_ptracer59_min        =   1.3739850072295993E-35
(PID.TID 0000.0001) %MON trcstat_ptracer59_mean       =   2.5849548560042977E-05
(PID.TID 0000.0001) %MON trcstat_ptracer59_sd         =   1.3552172203844514E-04
(PID.TID 0000.0001) %MON trcstat_ptracer59_del2       =   0.0000000000000000E+00
(PID.TID 0000.0001) %MON trcstat_ptracer60_max        =   8.6683865037496068E-04
(PID.TID 0000.0001) %MON trcstat_ptracer60_min        =   1.6992725818008525E-27
(PID.TID 0000.0001) %MON trcstat_ptracer60_mean       =   2.5849548560048978E-05
(PID.TID 0000.0001) %MON trcstat_ptracer60_sd         =   1.3545288043713597E-04
(PID.TID 0000.0001) %MON trcstat_ptracer60_del2       =   0.0000000000000000E+00
(PID.TID 0000.0001) %MON trcstat_ptracer61_max        =   8.6691171288648579E-04
(PID.TID 0000.0001) %MON trcstat_ptracer61_min        =   1.3739850072295993E-35
(PID.TID 0000.0001) %MON trcstat_ptracer61_mean       =   2.5849548560050251E-05
(PID.TID 0000.0001) %MON trcstat_ptracer61_sd         =   1.3552172203848894E-04
(PID.TID 0000.0001) %MON trcstat_ptracer61_del2       =   0.0000000000000000E+00
(PID.TID 0000.0001) %MON trcstat_ptracer62_max        =   8.6683865037496068E-04
(PID.TID 0000.0001) %MON trcstat_ptracer62_min        =   1.6992725818008525E-27
(PID.TID 0000.0001) %MON trcstat_ptracer62_mean       =   2.5849548560046863E-05
(PID.TID 0000.0001) %MON trcstat_ptracer62_sd         =   1.3545288043712332E-04
(PID.TID 0000.0001) %MON trcstat_ptracer62_del2       =   0.0000000000000000E+00
(PID.TID 0000.0001) %MON trcstat_ptracer63_max        =   8.6691171300584463E-04
(PID.TID 0000.0001) %MON trcstat_ptracer63_min        =   1.3739850072295993E-35
(PID.TID 0000.0001) %MON trcstat_ptracer63_mean       =   2.5907502339852103E-05
(PID.TID 0000.0001) %MON trcstat_ptracer63_sd         =   1.3587001928881505E-04
(PID.TID 0000.0001) %MON trcstat_ptracer63_del2       =   0.0000000000000000E+00
(PID.TID 0000.0001) %MON trcstat_ptracer64_max        =   8.6683866268230767E-04
(PID.TID 0000.0001) %MON trcstat_ptracer64_min        =   1.6992725818008525E-27
(PID.TID 0000.0001) %MON trcstat_ptracer64_mean       =   2.5997259152403389E-05
(PID.TID 0000.0001) %MON trcstat_ptracer64_sd         =   1.3634351847351041E-04
(PID.TID 0000.0001) %MON trcstat_ptracer64_del2       =   0.0000000000000000E+00
(PID.TID 0000.0001) %MON trcstat_ptracer65_max        =   8.6683865037496068E-04
(PID.TID 0000.0001) %MON trcstat_ptracer65_min        =   1.6992725818008525E-27
(PID.TID 0000.0001) %MON trcstat_ptracer65_mean       =   2.5849548560050296E-05
(PID.TID 0000.0001) %MON trcstat_ptracer65_sd         =   1.3545288043714392E-04
(PID.TID 0000.0001) %MON trcstat_ptracer65_del2       =   0.0000000000000000E+00
(PID.TID 0000.0001) %MON trcstat_ptracer66_max        =   8.6683865037496068E-04
(PID.TID 0000.0001) %MON trcstat_ptracer66_min        =   1.6992725818008525E-27
(PID.TID 0000.0001) %MON trcstat_ptracer66_mean       =   2.5849548560049692E-05
(PID.TID 0000.0001) %MON trcstat_ptracer66_sd         =   1.3545288043714031E-04
(PID.TID 0000.0001) %MON trcstat_ptracer66_del2       =   0.0000000000000000E+00
(PID.TID 0000.0001) %MON trcstat_ptracer67_max        =   8.6683865037496068E-04
(PID.TID 0000.0001) %MON trcstat_ptracer67_min        =   1.6992725818008525E-27
(PID.TID 0000.0001) %MON trcstat_ptracer67_mean       =   2.5849548560048635E-05
(PID.TID 0000.0001) %MON trcstat_ptracer67_sd         =   1.3545288043713394E-04
(PID.TID 0000.0001) %MON trcstat_ptracer67_del2       =   0.0000000000000000E+00
(PID.TID 0000.0001) %MON trcstat_ptracer68_max        =   8.6691171327622459E-04
(PID.TID 0000.0001) %MON trcstat_ptracer68_min        =   1.3739850072295993E-35
(PID.TID 0000.0001) %MON trcstat_ptracer68_mean       =   2.5916813832688174E-05
(PID.TID 0000.0001) %MON trcstat_ptracer68_sd         =   1.3592654884575815E-04
(PID.TID 0000.0001) %MON trcstat_ptracer68_del2       =   0.0000000000000000E+00
(PID.TID 0000.0001) %MON trcstat_ptracer69_max        =   8.6691171288648579E-04
(PID.TID 0000.0001) %MON trcstat_ptracer69_min        =   1.3739850072295993E-35
(PID.TID 0000.0001) %MON trcstat_ptracer69_mean       =   2.5849548560051424E-05
(PID.TID 0000.0001) %MON trcstat_ptracer69_sd         =   1.3552172203849604E-04
(PID.TID 0000.0001) %MON trcstat_ptracer69_del2       =   0.0000000000000000E+00
(PID.TID 0000.0001) %MON trcstat_ptracer70_max        =   8.6683865064327741E-04
(PID.TID 0000.0001) %MON trcstat_ptracer70_min        =   1.6992725818009077E-27
(PID.TID 0000.0001) %MON trcstat_ptracer70_mean       =   2.5849548567548743E-05
(PID.TID 0000.0001) %MON trcstat_ptracer70_sd         =   1.3545288047750567E-04
(PID.TID 0000.0001) %MON trcstat_ptracer70_del2       =   0.0000000000000000E+00
(PID.TID 0000.0001) %MON trcstat_ptracer71_max        =   8.6683865064327741E-04
(PID.TID 0000.0001) %MON trcstat_ptracer71_min        =   1.6992725818009077E-27
(PID.TID 0000.0001) %MON trcstat_ptracer71_mean       =   2.5849548567546988E-05
(PID.TID 0000.0001) %MON trcstat_ptracer71_sd         =   1.3545288047749513E-04
(PID.TID 0000.0001) %MON trcstat_ptracer71_del2       =   0.0000000000000000E+00
(PID.TID 0000.0001) %MON trcstat_ptracer72_max        =   8.6683865037496068E-04
(PID.TID 0000.0001) %MON trcstat_ptracer72_min        =   1.6992725818008525E-27
(PID.TID 0000.0001) %MON trcstat_ptracer72_mean       =   2.5849548560046840E-05
(PID.TID 0000.0001) %MON trcstat_ptracer72_sd         =   1.3545288043712315E-04
(PID.TID 0000.0001) %MON trcstat_ptracer72_del2       =   0.0000000000000000E+00
(PID.TID 0000.0001) %MON trcstat_ptracer73_max        =   8.6683866402950877E-04
(PID.TID 0000.0001) %MON trcstat_ptracer73_min        =   1.6992725818008525E-27
(PID.TID 0000.0001) %MON trcstat_ptracer73_mean       =   2.5999538082643658E-05
(PID.TID 0000.0001) %MON trcstat_ptracer73_sd         =   1.3635737505152094E-04
(PID.TID 0000.0001) %MON trcstat_ptracer73_del2       =   0.0000000000000000E+00
(PID.TID 0000.0001) %MON trcstat_ptracer74_max        =   8.6683865064327741E-04
(PID.TID 0000.0001) %MON trcstat_ptracer74_min        =   1.6992725818009077E-27
(PID.TID 0000.0001) %MON trcstat_ptracer74_mean       =   2.5849548567548794E-05
(PID.TID 0000.0001) %MON trcstat_ptracer74_sd         =   1.3545288047750597E-04
(PID.TID 0000.0001) %MON trcstat_ptracer74_del2       =   0.0000000000000000E+00
(PID.TID 0000.0001) %MON trcstat_ptracer75_max        =   8.6683866637535896E-04
(PID.TID 0000.0001) %MON trcstat_ptracer75_min        =   1.6992725818008525E-27
(PID.TID 0000.0001) %MON trcstat_ptracer75_mean       =   2.6012925815996106E-05
(PID.TID 0000.0001) %MON trcstat_ptracer75_sd         =   1.3643923946204354E-04
(PID.TID 0000.0001) %MON trcstat_ptracer75_del2       =   0.0000000000000000E+00
(PID.TID 0000.0001) %MON trcstat_ptracer76_max        =   8.6683866416352668E-04
(PID.TID 0000.0001) %MON trcstat_ptracer76_min        =   1.6992725818009077E-27
(PID.TID 0000.0001) %MON trcstat_ptracer76_mean       =   2.5888769040667590E-05
(PID.TID 0000.0001) %MON trcstat_ptracer76_sd         =   1.3568807961665178E-04
(PID.TID 0000.0001) %MON trcstat_ptracer76_del2       =   0.0000000000000000E+00
(PID.TID 0000.0001) %MON trcstat_ptracer77_max        =   8.6683865037496068E-04
(PID.TID 0000.0001) %MON trcstat_ptracer77_min        =   1.6992725818008525E-27
(PID.TID 0000.0001) %MON trcstat_ptracer77_mean       =   2.5849548560051644E-05
(PID.TID 0000.0001) %MON trcstat_ptracer77_sd         =   1.3545288043715205E-04
(PID.TID 0000.0001) %MON trcstat_ptracer77_del2       =   0.0000000000000000E+00
(PID.TID 0000.0001) %MON trcstat_ptracer78_max        =   8.6683865951704545E-04
(PID.TID 0000.0001) %MON trcstat_ptracer78_min        =   1.6992725818008525E-27
(PID.TID 0000.0001) %MON trcstat_ptracer78_mean       =   2.5862890156957670E-05
(PID.TID 0000.0001) %MON trcstat_ptracer78_sd         =   1.3553307618963424E-04
(PID.TID 0000.0001) %MON trcstat_ptracer78_del2       =   0.0000000000000000E+00
(PID.TID 0000.0001) %MON trcstat_ptracer79_max        =   8.6683865037496068E-04
(PID.TID 0000.0001) %MON trcstat_ptracer79_min        =   1.6992725818008525E-27
(PID.TID 0000.0001) %MON trcstat_ptracer79_mean       =   2.5849548560049232E-05
(PID.TID 0000.0001) %MON trcstat_ptracer79_sd         =   1.3545288043713755E-04
(PID.TID 0000.0001) %MON trcstat_ptracer79_del2       =   0.0000000000000000E+00
(PID.TID 0000.0001) %MON trcstat_ptracer80_max        =   8.6683865037496068E-04
(PID.TID 0000.0001) %MON trcstat_ptracer80_min        =   1.6992725818008525E-27
(PID.TID 0000.0001) %MON trcstat_ptracer80_mean       =   2.5849548560046514E-05
(PID.TID 0000.0001) %MON trcstat_ptracer80_sd         =   1.3545288043712120E-04
(PID.TID 0000.0001) %MON trcstat_ptracer80_del2       =   0.0000000000000000E+00
(PID.TID 0000.0001) %MON trcstat_ptracer81_max        =   8.6683866670720614E-04
(PID.TID 0000.0001) %MON trcstat_ptracer81_min        =   1.6992725818009077E-27
(PID.TID 0000.0001) %MON trcstat_ptracer81_mean       =   2.5935902744646416E-05
(PID.TID 0000.0001) %MON trcstat_ptracer81_sd         =   1.3597144092503466E-04
(PID.TID 0000.0001) %MON trcstat_ptracer81_del2       =   0.0000000000000000E+00
(PID.TID 0000.0001) %MON trcstat_ptracer82_max        =   8.6691171288648579E-04
(PID.TID 0000.0001) %MON trcstat_ptracer82_min        =   1.3739850072295993E-35
(PID.TID 0000.0001) %MON trcstat_ptracer82_mean       =   2.5849548560042699E-05
(PID.TID 0000.0001) %MON trcstat_ptracer82_sd         =   1.3552172203844349E-04
(PID.TID 0000.0001) %MON trcstat_ptracer82_del2       =   0.0000000000000000E+00
(PID.TID 0000.0001) %MON trcstat_ptracer83_max        =   8.6683865064327741E-04
(PID.TID 0000.0001) %MON trcstat_ptracer83_min        =   1.6992725818009077E-27
(PID.TID 0000.0001) %MON trcstat_ptracer83_mean       =   2.5849548567545212E-05
(PID.TID 0000.0001) %MON trcstat_ptracer83_sd         =   1.3545288047748448E-04
(PID.TID 0000.0001) %MON trcstat_ptracer83_del2       =   0.0000000000000000E+00
(PID.TID 0000.0001) %MON trcstat_ptracer84_max        =   8.6691171288648579E-04
(PID.TID 0000.0001) %MON trcstat_ptracer84_min        =   1.3739850072295993E-35
(PID.TID 0000.0001) %MON trcstat_ptracer84_mean       =   2.5849548560040216E-05
(PID.TID 0000.0001) %MON trcstat_ptracer84_sd         =   1.3552172203842852E-04
(PID.TID 0000.0001) %MON trcstat_ptracer84_del2       =   0.0000000000000000E+00
(PID.TID 0000.0001) %MON trcstat_ptracer85_max        =   8.6683865037496068E-04
(PID.TID 0000.0001) %MON trcstat_ptracer85_min        =   1.6992725818008525E-27
(PID.TID 0000.0001) %MON trcstat_ptracer85_mean       =   2.5849548560048554E-05
(PID.TID 0000.0001) %MON trcstat_ptracer85_sd         =   1.3545288043713345E-04
(PID.TID 0000.0001) %MON trcstat_ptracer85_del2       =   0.0000000000000000E+00
(PID.TID 0000.0001) %MON trcstat_ptracer86_max        =   8.6683866269136390E-04
(PID.TID 0000.0001) %MON trcstat_ptracer86_min        =   1.6992725818009077E-27
(PID.TID 0000.0001) %MON trcstat_ptracer86_mean       =   2.5871854881815471E-05
(PID.TID 0000.0001) %MON trcstat_ptracer86_sd         =   1.3558682758526945E-04
(PID.TID 0000.0001) %MON trcstat_ptracer86_del2       =   0.0000000000000000E+00
(PID.TID 0000.0001) %MON trcstat_ptracer87_max        =   8.6691171336040693E-04
(PID.TID 0000.0001) %MON trcstat_ptracer87_min        =   1.3739850072295993E-35
(PID.TID 0000.0001) %MON trcstat_ptracer87_mean       =   2.5968145759359731E-05
(PID.TID 0000.0001) %MON trcstat_ptracer87_sd         =   1.3623860154289601E-04
(PID.TID 0000.0001) %MON trcstat_ptracer87_del2       =   0.0000000000000000E+00
(PID.TID 0000.0001) %MON trcstat_ptracer88_max        =   8.6691171288648579E-04
(PID.TID 0000.0001) %MON trcstat_ptracer88_min        =   1.3739850072295993E-35
(PID.TID 0000.0001) %MON trcstat_ptracer88_mean       =   2.5849548560042462E-05
(PID.TID 0000.0001) %MON trcstat_ptracer88_sd         =   1.3552172203844205E-04
(PID.TID 0000.0001) %MON trcstat_ptracer88_del2       =   0.0000000000000000E+00
(PID.TID 0000.0001) %MON trcstat_ptracer89_max        =   8.6691171288648579E-04
(PID.TID 0000.0001) %MON trcstat_ptracer89_min        =   1.3739850072295993E-35
(PID.TID 0000.0001) %MON trcstat_ptracer89_mean       =   2.5849548560040995E-05
(PID.TID 0000.0001) %MON trcstat_ptracer89_sd         =   1.3552172203843319E-04
(PID.TID 0000.0001) %MON trcstat_ptracer89_del2       =   0.0000000000000000E+00
(PID.TID 0000.0001) %MON trcstat_ptracer90_max        =   8.6683865064327741E-04
(PID.TID 0000.0001) %MON trcstat_ptracer90_min        =   1.6992725818009077E-27
(PID.TID 0000.0001) %MON trcstat_ptracer90_mean       =   2.5849548567548844E-05
(PID.TID 0000.0001) %MON trcstat_ptracer90_sd         =   1.3545288047750627E-04
(PID.TID 0000.0001) %MON trcstat_ptracer90_del2       =   0.0000000000000000E+00
(PID.TID 0000.0001) %MON trcstat_ptracer91_max        =   8.6691171288648579E-04
(PID.TID 0000.0001) %MON trcstat_ptracer91_min        =   1.3739850072295993E-35
(PID.TID 0000.0001) %MON trcstat_ptracer91_mean       =   2.5849548560041866E-05
(PID.TID 0000.0001) %MON trcstat_ptracer91_sd         =   1.3552172203843839E-04
(PID.TID 0000.0001) %MON trcstat_ptracer91_del2       =   0.0000000000000000E+00
(PID.TID 0000.0001) %MON trcstat_ptracer92_max        =   8.6683865975254295E-04
(PID.TID 0000.0001) %MON trcstat_ptracer92_min        =   1.6992725818008525E-27
(PID.TID 0000.0001) %MON trcstat_ptracer92_mean       =   2.5862876704851278E-05
(PID.TID 0000.0001) %MON trcstat_ptracer92_sd         =   1.3553303178625214E-04
(PID.TID 0000.0001) %MON trcstat_ptracer92_del2       =   0.0000000000000000E+00
(PID.TID 0000.0001) %MON trcstat_ptracer93_max        =   8.6683865064327741E-04
(PID.TID 0000.0001) %MON trcstat_ptracer93_min        =   1.6992725818009077E-27
(PID.TID 0000.0001) %MON trcstat_ptracer93_mean       =   2.5849548567545263E-05
(PID.TID 0000.0001) %MON trcstat_ptracer93_sd         =   1.3545288047748475E-04
(PID.TID 0000.0001) %MON trcstat_ptracer93_del2       =   0.0000000000000000E+00
(PID.TID 0000.0001) %MON trcstat_ptracer94_max        =   8.6683866374200004E-04
(PID.TID 0000.0001) %MON trcstat_ptracer94_min        =   1.6992725818009077E-27
(PID.TID 0000.0001) %MON trcstat_ptracer94_mean       =   2.5992277890672893E-05
(PID.TID 0000.0001) %MON trcstat_ptracer94_sd         =   1.3631301867309526E-04
(PID.TID 0000.0001) %MON trcstat_ptracer94_del2       =   0.0000000000000000E+00
(PID.TID 0000.0001) %MON trcstat_ptracer95_max        =   8.6683865037496068E-04
(PID.TID 0000.0001) %MON trcstat_ptracer95_min        =   1.6992725818008525E-27
(PID.TID 0000.0001) %MON trcstat_ptracer95_mean       =   2.5849548560046203E-05
(PID.TID 0000.0001) %MON trcstat_ptracer95_sd         =   1.3545288043711931E-04
(PID.TID 0000.0001) %MON trcstat_ptracer95_del2       =   0.0000000000000000E+00
(PID.TID 0000.0001) %MON trcstat_ptracer96_max        =   8.6691171302989386E-04
(PID.TID 0000.0001) %MON trcstat_ptracer96_min        =   1.3739850072295993E-35
(PID.TID 0000.0001) %MON trcstat_ptracer96_mean       =   2.5923527346519739E-05
(PID.TID 0000.0001) %MON trcstat_ptracer96_sd         =   1.3596724938257473E-04
(PID.TID 0000.0001) %MON trcstat_ptracer96_del2       =   0.0000000000000000E+00
(PID.TID 0000.0001) %MON trcstat_ptracer97_max        =   1.2365300880501247E-07
(PID.TID 0000.0001) %MON trcstat_ptracer97_min        =   9.6539308657082408E-34
(PID.TID 0000.0001) %MON trcstat_ptracer97_mean       =   1.6351650402209043E-08
(PID.TID 0000.0001) %MON trcstat_ptracer97_sd         =   2.9908440368295167E-08
(PID.TID 0000.0001) %MON trcstat_ptracer97_del2       =   0.0000000000000000E+00
(PID.TID 0000.0001) %MON trcstat_ptracer98_max        =   1.2365576211687349E-07
(PID.TID 0000.0001) %MON trcstat_ptracer98_min        =   9.6539308657108751E-34
(PID.TID 0000.0001) %MON trcstat_ptracer98_mean       =   1.6351728618443573E-08
(PID.TID 0000.0001) %MON trcstat_ptracer98_sd         =   2.9908702594151543E-08
(PID.TID 0000.0001) %MON trcstat_ptracer98_del2       =   0.0000000000000000E+00
