(PID.TID 0000.0001) %MON XC_max                       =   3.3550000000000E+02
(PID.TID 0000.0001) %MON XC_min                       =   3.3550000000000E+02
(PID.TID 0000.0001) %MON XC_mean                      =   3.3550000000000E+02
(PID.TID 0000.0001) %MON XC_sd                        =   0.0000000000000E+00
(PID.TID 0000.0001) %MON XG_max                       =   3.3500000000000E+02
(PID.TID 0000.0001) %MON XG_min                       =   3.3500000000000E+02
(PID.TID 0000.0001) %MON XG_mean                      =   3.3500000000000E+02
(PID.TID 0000.0001) %MON XG_sd                        =   0.0000000000000E+00
(PID.TID 0000.0001) %MON DXC_max                      =   1.0603184087720E+05
(PID.TID 0000.0001) %MON DXC_min                      =   1.0603184087720E+05
(PID.TID 0000.0001) %MON DXC_mean                     =   1.0603184087720E+05
(PID.TID 0000.0001) %MON DXC_sd                       =   0.0000000000000E+00
(PID.TID 0000.0001) %MON DXF_max                      =   1.0603184087720E+05
(PID.TID 0000.0001) %MON DXF_min                      =   1.0603184087720E+05
(PID.TID 0000.0001) %MON DXF_mean                     =   1.0603184087720E+05
(PID.TID 0000.0001) %MON DXF_sd                       =   0.0000000000000E+00
(PID.TID 0000.0001) %MON DXG_max                      =   1.0573606049669E+05
(PID.TID 0000.0001) %MON DXG_min                      =   1.0573606049669E+05
(PID.TID 0000.0001) %MON DXG_mean                     =   1.0573606049669E+05
(PID.TID 0000.0001) %MON DXG_sd                       =   0.0000000000000E+00
(PID.TID 0000.0001) %MON DXV_max                      =   1.0573606049669E+05
(PID.TID 0000.0001) %MON DXV_min                      =   1.0573606049669E+05
(PID.TID 0000.0001) %MON DXV_mean                     =   1.0573606049669E+05
(PID.TID 0000.0001) %MON DXV_sd                       =   0.0000000000000E+00
(PID.TID 0000.0001) %MON YC_max                       =  -1.7500000000000E+01
(PID.TID 0000.0001) %MON YC_min                       =  -1.7500000000000E+01
(PID.TID 0000.0001) %MON YC_mean                      =  -1.7500000000000E+01
(PID.TID 0000.0001) %MON YC_sd                        =   0.0000000000000E+00
(PID.TID 0000.0001) %MON YG_max                       =  -1.8000000000000E+01
(PID.TID 0000.0001) %MON YG_min                       =  -1.8000000000000E+01
(PID.TID 0000.0001) %MON YG_mean                      =  -1.8000000000000E+01
(PID.TID 0000.0001) %MON YG_sd                        =   0.0000000000000E+00
(PID.TID 0000.0001) %MON DYC_max                      =   1.1117747335204E+05
(PID.TID 0000.0001) %MON DYC_min                      =   1.1117747335204E+05
(PID.TID 0000.0001) %MON DYC_mean                     =   1.1117747335204E+05
(PID.TID 0000.0001) %MON DYC_sd                       =   0.0000000000000E+00
(PID.TID 0000.0001) %MON DYF_max                      =   1.1117747335204E+05
(PID.TID 0000.0001) %MON DYF_min                      =   1.1117747335204E+05
(PID.TID 0000.0001) %MON DYF_mean                     =   1.1117747335204E+05
(PID.TID 0000.0001) %MON DYF_sd                       =   0.0000000000000E+00
(PID.TID 0000.0001) %MON DYG_max                      =   1.1117747335204E+05
(PID.TID 0000.0001) %MON DYG_min                      =   1.1117747335204E+05
(PID.TID 0000.0001) %MON DYG_mean                     =   1.1117747335204E+05
(PID.TID 0000.0001) %MON DYG_sd                       =   0.0000000000000E+00
(PID.TID 0000.0001) %MON DYU_max                      =   1.1117747335204E+05
(PID.TID 0000.0001) %MON DYU_min                      =   1.1117747335204E+05
(PID.TID 0000.0001) %MON DYU_mean                     =   1.1117747335204E+05
(PID.TID 0000.0001) %MON DYU_sd                       =   0.0000000000000E+00
(PID.TID 0000.0001) %MON RA_max                       =   1.1788202541770E+10
(PID.TID 0000.0001) %MON RA_min                       =   1.1788202541770E+10
(PID.TID 0000.0001) %MON RA_mean                      =   1.1788202541770E+10
(PID.TID 0000.0001) %MON RA_sd                        =   0.0000000000000E+00
(PID.TID 0000.0001) %MON RAW_max                      =   1.1788202541770E+10
(PID.TID 0000.0001) %MON RAW_min                      =   1.1788202541770E+10
(PID.TID 0000.0001) %MON RAW_mean                     =   1.1788202541770E+10
(PID.TID 0000.0001) %MON RAW_sd                       =   0.0000000000000E+00
(PID.TID 0000.0001) %MON RAS_max                      =   1.1755318843774E+10
(PID.TID 0000.0001) %MON RAS_min                      =   1.1755318843774E+10
(PID.TID 0000.0001) %MON RAS_mean                     =   1.1755318843774E+10
(PID.TID 0000.0001) %MON RAS_sd                       =   0.0000000000000E+00
(PID.TID 0000.0001) %MON RAZ_max                      =   1.1755318843774E+10
(PID.TID 0000.0001) %MON RAZ_min                      =   1.1755318843774E+10
(PID.TID 0000.0001) %MON RAZ_mean                     =   1.1755318843774E+10
(PID.TID 0000.0001) %MON RAZ_sd                       =   0.0000000000000E+00
(PID.TID 0000.0001) %MON AngleCS_max                  =   1.0000000000000E+00
(PID.TID 0000.0001) %MON AngleCS_min                  =   1.0000000000000E+00
(PID.TID 0000.0001) %MON AngleCS_mean                 =   1.0000000000000E+00
(PID.TID 0000.0001) %MON AngleCS_sd                   =   0.0000000000000E+00
(PID.TID 0000.0001) %MON AngleSN_max                  =   0.0000000000000E+00
(PID.TID 0000.0001) %MON AngleSN_min                  =   0.0000000000000E+00
(PID.TID 0000.0001) %MON AngleSN_mean                 =   0.0000000000000E+00
(PID.TID 0000.0001) %MON AngleSN_sd                   =   0.0000000000000E+00
(PID.TID 0000.0001) %MON fCori_max                    =  -4.3855676645210E-05
(PID.TID 0000.0001) %MON fCori_min                    =  -4.3855676645210E-05
(PID.TID 0000.0001) %MON fCori_mean                   =  -4.3855676645210E-05
(PID.TID 0000.0001) %MON fCori_sd                     =   0.0000000000000E+00
(PID.TID 0000.0001) %MON fCoriG_max                   =  -4.5067801836625E-05
(PID.TID 0000.0001) %MON fCoriG_min                   =  -4.5067801836625E-05
(PID.TID 0000.0001) %MON fCoriG_mean                  =  -4.5067801836625E-05
(PID.TID 0000.0001) %MON fCoriG_sd                    =   0.0000000000000E+00
(PID.TID 0000.0001) %MON fCoriCos_max                 =   1.3909243610207E-04
(PID.TID 0000.0001) %MON fCoriCos_min                 =   1.3909243610207E-04
(PID.TID 0000.0001) %MON fCoriCos_mean                =   1.3909243610207E-04
(PID.TID 0000.0001) %MON fCoriCos_sd                  =   0.0000000000000E+00
(PID.TID 0000.0001) %MON time_tsnumber                =                     0
(PID.TID 0000.0001) %MON time_secondsf                =   0.0000000000000E+00
(PID.TID 0000.0001) %MON dynstat_eta_max              =   0.0000000000000E+00
(PID.TID 0000.0001) %MON dynstat_eta_min              =   0.0000000000000E+00
(PID.TID 0000.0001) %MON dynstat_eta_mean             =   0.0000000000000E+00
(PID.TID 0000.0001) %MON dynstat_eta_sd               =   0.0000000000000E+00
(PID.TID 0000.0001) %MON dynstat_eta_del2             =   0.0000000000000E+00
(PID.TID 0000.0001) %MON dynstat_uvel_max             =   0.0000000000000E+00
(PID.TID 0000.0001) %MON dynstat_uvel_min             =   0.0000000000000E+00
(PID.TID 0000.0001) %MON dynstat_uvel_mean            =   0.0000000000000E+00
(PID.TID 0000.0001) %MON dynstat_uvel_sd              =   0.0000000000000E+00
(PID.TID 0000.0001) %MON dynstat_uvel_del2            =   0.0000000000000E+00
(PID.TID 0000.0001) %MON dynstat_vvel_max             =   0.0000000000000E+00
(PID.TID 0000.0001) %MON dynstat_vvel_min             =   0.0000000000000E+00
(PID.TID 0000.0001) %MON dynstat_vvel_mean            =   0.0000000000000E+00
(PID.TID 0000.0001) %MON dynstat_vvel_sd              =   0.0000000000000E+00
(PID.TID 0000.0001) %MON dynstat_vvel_del2            =   0.0000000000000E+00
(PID.TID 0000.0001) %MON dynstat_wvel_max             =   0.0000000000000E+00
(PID.TID 0000.0001) %MON dynstat_wvel_min             =   0.0000000000000E+00
(PID.TID 0000.0001) %MON dynstat_wvel_mean            =   0.0000000000000E+00
(PID.TID 0000.0001) %MON dynstat_wvel_sd              =   0.0000000000000E+00
(PID.TID 0000.0001) %MON dynstat_wvel_del2            =   0.0000000000000E+00
(PID.TID 0000.0001) %MON dynstat_theta_max            =   2.6345800399780E+01
(PID.TID 0000.0001) %MON dynstat_theta_min            =   2.6737000942230E+00
(PID.TID 0000.0001) %MON dynstat_theta_mean           =   5.4735936027058E+00
(PID.TID 0000.0001) %MON dynstat_theta_sd             =   5.1972090828105E+00
(PID.TID 0000.0001) %MON dynstat_theta_del2           =   0.0000000000000E+00
(PID.TID 0000.0001) %MON dynstat_salt_max             =   3.5000000000000E+01
(PID.TID 0000.0001) %MON dynstat_salt_min             =   3.5000000000000E+01
(PID.TID 0000.0001) %MON dynstat_salt_mean            =   3.5000000000000E+01
(PID.TID 0000.0001) %MON dynstat_salt_sd              =   7.1054273576010E-15
(PID.TID 0000.0001) %MON dynstat_salt_del2            =   0.0000000000000E+00
(PID.TID 0000.0001) %MON dynstat_sst_max              =   2.6345800399780E+01
(PID.TID 0000.0001) %MON dynstat_sst_min              =   2.6345800399780E+01
(PID.TID 0000.0001) %MON dynstat_sst_mean             =   2.6345800399780E+01
(PID.TID 0000.0001) %MON dynstat_sst_sd               =   0.0000000000000E+00
(PID.TID 0000.0001) %MON dynstat_sst_del2             =   0.0000000000000E+00
(PID.TID 0000.0001) %MON dynstat_sss_max              =   3.5000000000000E+01
(PID.TID 0000.0001) %MON dynstat_sss_min              =   3.5000000000000E+01
(PID.TID 0000.0001) %MON dynstat_sss_mean             =   3.5000000000000E+01
(PID.TID 0000.0001) %MON dynstat_sss_sd               =   0.0000000000000E+00
(PID.TID 0000.0001) %MON dynstat_sss_del2             =   0.0000000000000E+00
(PID.TID 0000.0001) %MON forcing_qnet_max             =   0.0000000000000E+00
(PID.TID 0000.0001) %MON forcing_qnet_min             =   0.0000000000000E+00
(PID.TID 0000.0001) %MON forcing_qnet_mean            =   0.0000000000000E+00
(PID.TID 0000.0001) %MON forcing_qnet_sd              =   0.0000000000000E+00
(PID.TID 0000.0001) %MON forcing_qnet_del2            =   0.0000000000000E+00
(PID.TID 0000.0001) %MON forcing_qsw_max              =   0.0000000000000E+00
(PID.TID 0000.0001) %MON forcing_qsw_min              =   0.0000000000000E+00
(PID.TID 0000.0001) %MON forcing_qsw_mean             =   0.0000000000000E+00
(PID.TID 0000.0001) %MON forcing_qsw_sd               =   0.0000000000000E+00
(PID.TID 0000.0001) %MON forcing_qsw_del2             =   0.0000000000000E+00
(PID.TID 0000.0001) %MON forcing_empmr_max            =   0.0000000000000E+00
(PID.TID 0000.0001) %MON forcing_empmr_min            =   0.0000000000000E+00
(PID.TID 0000.0001) %MON forcing_empmr_mean           =   0.0000000000000E+00
(PID.TID 0000.0001) %MON forcing_empmr_sd             =   0.0000000000000E+00
(PID.TID 0000.0001) %MON forcing_empmr_del2           =   0.0000000000000E+00
(PID.TID 0000.0001) %MON forcing_fu_max               =   0.0000000000000E+00
(PID.TID 0000.0001) %MON forcing_fu_min               =   0.0000000000000E+00
(PID.TID 0000.0001) %MON forcing_fu_mean              =   0.0000000000000E+00
(PID.TID 0000.0001) %MON forcing_fu_sd                =   0.0000000000000E+00
(PID.TID 0000.0001) %MON forcing_fu_del2              =   0.0000000000000E+00
(PID.TID 0000.0001) %MON forcing_fv_max               =   0.0000000000000E+00
(PID.TID 0000.0001) %MON forcing_fv_min               =   0.0000000000000E+00
(PID.TID 0000.0001) %MON forcing_fv_mean              =   0.0000000000000E+00
(PID.TID 0000.0001) %MON forcing_fv_sd                =   0.0000000000000E+00
(PID.TID 0000.0001) %MON forcing_fv_del2              =   0.0000000000000E+00
(PID.TID 0000.0001) %MON advcfl_uvel_max              =   0.0000000000000E+00
(PID.TID 0000.0001) %MON advcfl_vvel_max              =   0.0000000000000E+00
(PID.TID 0000.0001) %MON advcfl_wvel_max              =   0.0000000000000E+00
(PID.TID 0000.0001) %MON advcfl_W_hf_max              =   0.0000000000000E+00
(PID.TID 0000.0001) %MON pe_b_mean                    =   0.0000000000000E+00
(PID.TID 0000.0001) %MON ke_max                       =   0.0000000000000E+00
(PID.TID 0000.0001) %MON ke_mean                      =   0.0000000000000E+00
(PID.TID 0000.0001) %MON ke_vol                       =   4.1199767883485E+13
(PID.TID 0000.0001) %MON vort_r_min                   =   0.0000000000000E+00
(PID.TID 0000.0001) %MON vort_r_max                   =   0.0000000000000E+00
(PID.TID 0000.0001) %MON vort_a_mean                  =  -4.5067801836625E-05
(PID.TID 0000.0001) %MON vort_a_sd                    =  -4.1359030627651E-25
(PID.TID 0000.0001) %MON vort_p_mean                  =  -4.5067801836625E-05
(PID.TID 0000.0001) %MON vort_p_sd                    =   0.0000000000000E+00
(PID.TID 0000.0001) %MON surfExpan_theta_mean         =   0.0000000000000E+00
(PID.TID 0000.0001) %MON surfExpan_salt_mean          =   0.0000000000000E+00
(PID.TID 0000.0001) %MON trcstat_ptracer01_max        =                      NAN
(PID.TID 0000.0001) %MON trcstat_ptracer01_min        =                      NAN
(PID.TID 0000.0001) %MON trcstat_ptracer01_mean       =                      NAN
(PID.TID 0000.0001) %MON trcstat_ptracer01_sd         =                      NAN
(PID.TID 0000.0001) %MON trcstat_ptracer01_del2       =                      NAN
(PID.TID 0000.0001) %MON trcstat_ptracer02_max        =   2.5584036484361000E-02
(PID.TID 0000.0001) %MON trcstat_ptracer02_min        =   1.8763074649541999E-07
(PID.TID 0000.0001) %MON trcstat_ptracer02_mean       =   6.0352662496819000E-04
(PID.TID 0000.0001) %MON trcstat_ptracer02_sd         =   3.2425361014468000E-03
(PID.TID 0000.0001) %MON trcstat_ptracer02_del2       =   0.0000000000000000E+00
(PID.TID 0000.0001) %MON trcstat_ptracer03_max        =   1.8258459866046999E-02
(PID.TID 0000.0001) %MON trcstat_ptracer03_min        =   3.8796779335826000E-06
(PID.TID 0000.0001) %MON trcstat_ptracer03_mean       =   6.0474443227462001E-04
(PID.TID 0000.0001) %MON trcstat_ptracer03_sd         =   1.9428680890593000E-03
(PID.TID 0000.0001) %MON trcstat_ptracer03_del2       =   0.0000000000000000E+00
(PID.TID 0000.0001) %MON trcstat_ptracer04_max        =   3.3903499603271001E+01
(PID.TID 0000.0001) %MON trcstat_ptracer04_min        =   4.6300001442432001E-02
(PID.TID 0000.0001) %MON trcstat_ptracer04_mean       =   2.3502389802218001E+01
(PID.TID 0000.0001) %MON trcstat_ptracer04_sd         =   7.8162030599380996E+00
(PID.TID 0000.0001) %MON trcstat_ptracer04_del2       =   0.0000000000000000E+00
(PID.TID 0000.0001) %MON trcstat_ptracer05_max        =   2.2437000274657999E+00
(PID.TID 0000.0001) %MON trcstat_ptracer05_min        =   2.1024999022484001E-01
(PID.TID 0000.0001) %MON trcstat_ptracer05_mean       =   1.5821337454308999E+00
(PID.TID 0000.0001) %MON trcstat_ptracer05_sd         =   4.6735065681380000E-01
(PID.TID 0000.0001) %MON trcstat_ptracer05_del2       =   0.0000000000000000E+00
(PID.TID 0000.0001) %MON trcstat_ptracer06_max        =   3.9387401580811002E+01
(PID.TID 0000.0001) %MON trcstat_ptracer06_min        =   1.2247999906539999E+00
(PID.TID 0000.0001) %MON trcstat_ptracer06_mean       =   2.9621888811154999E+01
(PID.TID 0000.0001) %MON trcstat_ptracer06_sd         =   1.1270588565469000E+01
(PID.TID 0000.0001) %MON trcstat_ptracer06_del2       =   0.0000000000000000E+00
(PID.TID 0000.0001) %MON trcstat_ptracer07_max        =   1.3000000035390000E-03
(PID.TID 0000.0001) %MON trcstat_ptracer07_min        =   1.3000000035390000E-03
(PID.TID 0000.0001) %MON trcstat_ptracer07_mean       =   1.3000000035390000E-03
(PID.TID 0000.0001) %MON trcstat_ptracer07_sd         =   0.0000000000000000E+00
(PID.TID 0000.0001) %MON trcstat_ptracer07_del2       =   0.0000000000000000E+00
(PID.TID 0000.0001) %MON trcstat_ptracer08_max        =   6.1361303552985602E-01
(PID.TID 0000.0001) %MON trcstat_ptracer08_min        =   0.0000000000000000E+00
(PID.TID 0000.0001) %MON trcstat_ptracer08_mean       =   2.5768235051024400E-02
(PID.TID 0000.0001) %MON trcstat_ptracer08_sd         =   1.1093058611765999E-01
(PID.TID 0000.0001) %MON trcstat_ptracer08_del2       =   0.0000000000000000E+00
(PID.TID 0000.0001) %MON trcstat_ptracer09_max        =   8.1815071403980005E-02
(PID.TID 0000.0001) %MON trcstat_ptracer09_min        =   0.0000000000000000E+00
(PID.TID 0000.0001) %MON trcstat_ptracer09_mean       =   3.4357646734699998E-03
(PID.TID 0000.0001) %MON trcstat_ptracer09_sd         =   1.4790744815688000E-02
(PID.TID 0000.0001) %MON trcstat_ptracer09_del2       =   0.0000000000000000E+00
(PID.TID 0000.0001) %MON trcstat_ptracer10_max        =   5.1134419627487998E-03
(PID.TID 0000.0001) %MON trcstat_ptracer10_min        =   0.0000000000000000E+00
(PID.TID 0000.0001) %MON trcstat_ptracer10_mean       =   2.1473529209187000E-04
(PID.TID 0000.0001) %MON trcstat_ptracer10_sd         =   9.2442155098049997E-04
(PID.TID 0000.0001) %MON trcstat_ptracer10_del2       =   0.0000000000000000E+00
(PID.TID 0000.0001) %MON trcstat_ptracer11_max        =   5.1134416025888996E-06
(PID.TID 0000.0001) %MON trcstat_ptracer11_min        =   0.0000000000000000E+00
(PID.TID 0000.0001) %MON trcstat_ptracer11_mean       =   2.1473529239838000E-07
(PID.TID 0000.0001) %MON trcstat_ptracer11_sd         =   9.2442155063872004E-07
(PID.TID 0000.0001) %MON trcstat_ptracer11_del2       =   0.0000000000000000E+00
(PID.TID 0000.0001) %MON trcstat_ptracer12_max        =   3.2696326961740796E-02
(PID.TID 0000.0001) %MON trcstat_ptracer12_min        =   1.4074325918044800E-04
(PID.TID 0000.0001) %MON trcstat_ptracer12_mean       =   9.4718200756290002E-03
(PID.TID 0000.0001) %MON trcstat_ptracer12_sd         =   1.1596152472639561E-02
(PID.TID 0000.0001) %MON trcstat_ptracer12_del2       =   0.0000000000000000E+00
(PID.TID 0000.0001) %MON trcstat_ptracer13_max        =   4.3595102615654000E-03
(PID.TID 0000.0001) %MON trcstat_ptracer13_min        =   1.8765767890726998E-05
(PID.TID 0000.0001) %MON trcstat_ptracer13_mean       =   1.2629093434172001E-03
(PID.TID 0000.0001) %MON trcstat_ptracer13_sd         =   1.5461536630186001E-03
(PID.TID 0000.0001) %MON trcstat_ptracer13_del2       =   0.0000000000000000E+00
(PID.TID 0000.0001) %MON trcstat_ptracer14_max        =   2.7246939134783999E-04
(PID.TID 0000.0001) %MON trcstat_ptracer14_min        =   1.1728604931703999E-06
(PID.TID 0000.0001) %MON trcstat_ptracer14_mean       =   7.8931833963575003E-05
(PID.TID 0000.0001) %MON trcstat_ptracer14_sd         =   9.6634603938663006E-05
(PID.TID 0000.0001) %MON trcstat_ptracer14_del2       =   0.0000000000000000E+00
(PID.TID 0000.0001) %MON trcstat_ptracer15_max        =   1.6253039240837000E-02
(PID.TID 0000.0001) %MON trcstat_ptracer15_min        =   1.1382005177437999E-03
(PID.TID 0000.0001) %MON trcstat_ptracer15_mean       =   5.4894673427532004E-03
(PID.TID 0000.0001) %MON trcstat_ptracer15_sd         =   5.1731692661235998E-03
(PID.TID 0000.0001) %MON trcstat_ptracer15_del2       =   0.0000000000000000E+00
(PID.TID 0000.0001) %MON trcstat_ptracer16_max        =   2.7246940703662001E-07
(PID.TID 0000.0001) %MON trcstat_ptracer16_min        =   1.1728603643846001E-09
(PID.TID 0000.0001) %MON trcstat_ptracer16_mean       =   7.8931834490195002E-08
(PID.TID 0000.0001) %MON trcstat_ptracer16_sd         =   9.6634605997272996E-08
(PID.TID 0000.0001) %MON trcstat_ptracer16_del2       =   0.0000000000000000E+00
(PID.TID 0000.0001) %MON trcstat_ptracer17_max        =                      NAN
(PID.TID 0000.0001) %MON trcstat_ptracer17_min        =                      NAN
(PID.TID 0000.0001) %MON trcstat_ptracer17_mean       =                      NAN
(PID.TID 0000.0001) %MON trcstat_ptracer17_sd         =                      NAN
(PID.TID 0000.0001) %MON trcstat_ptracer17_del2       =                      NAN
(PID.TID 0000.0001) %MON trcstat_ptracer18_max        =   5.1134419627487998E-03
(PID.TID 0000.0001) %MON trcstat_ptracer18_min        =   0.0000000000000000E+00
(PID.TID 0000.0001) %MON trcstat_ptracer18_mean       =   2.1473529209187000E-04
(PID.TID 0000.0001) %MON trcstat_ptracer18_sd         =   9.2442155098049997E-04
(PID.TID 0000.0001) %MON trcstat_ptracer18_del2       =   0.0000000000000000E+00
(PID.TID 0000.0001) %MON trcstat_ptracer19_max        =   8.8153867181972395E-04
(PID.TID 0000.0001) %MON trcstat_ptracer19_min        =   0.0000000000000000E+00
(PID.TID 0000.0001) %MON trcstat_ptracer19_mean       =   2.6284899836224797E-05
(PID.TID 0000.0001) %MON trcstat_ptracer19_sd         =   1.3780694875414800E-04
(PID.TID 0000.0001) %MON trcstat_ptracer19_del2       =   0.0000000000000000E+00
(PID.TID 0000.0001) %MON trcstat_ptracer20_max        =   8.8153867181972395E-04
(PID.TID 0000.0001) %MON trcstat_ptracer20_min        =   0.0000000000000000E+00
(PID.TID 0000.0001) %MON trcstat_ptracer20_mean       =   2.6284899836224797E-05
(PID.TID 0000.0001) %MON trcstat_ptracer20_sd         =   1.3780694875414800E-04
(PID.TID 0000.0001) %MON trcstat_ptracer20_del2       =   0.0000000000000000E+00
(PID.TID 0000.0001) %MON trcstat_ptracer21_max        =   8.8153867181972395E-04
(PID.TID 0000.0001) %MON trcstat_ptracer21_min        =   0.0000000000000000E+00
(PID.TID 0000.0001) %MON trcstat_ptracer21_mean       =   2.6284899836224797E-05
(PID.TID 0000.0001) %MON trcstat_ptracer21_sd         =   1.3780694875414800E-04
(PID.TID 0000.0001) %MON trcstat_ptracer21_del2       =   0.0000000000000000E+00
(PID.TID 0000.0001) %MON trcstat_ptracer22_max        =   8.8153867181972395E-04
(PID.TID 0000.0001) %MON trcstat_ptracer22_min        =   0.0000000000000000E+00
(PID.TID 0000.0001) %MON trcstat_ptracer22_mean       =   2.6284899836224797E-05
(PID.TID 0000.0001) %MON trcstat_ptracer22_sd         =   1.3780694875414800E-04
(PID.TID 0000.0001) %MON trcstat_ptracer22_del2       =   0.0000000000000000E+00
(PID.TID 0000.0001) %MON trcstat_ptracer23_max        =   8.8153867181972395E-04
(PID.TID 0000.0001) %MON trcstat_ptracer23_min        =   0.0000000000000000E+00
(PID.TID 0000.0001) %MON trcstat_ptracer23_mean       =   2.6284899836224797E-05
(PID.TID 0000.0001) %MON trcstat_ptracer23_sd         =   1.3780694875414800E-04
(PID.TID 0000.0001) %MON trcstat_ptracer23_del2       =   0.0000000000000000E+00
(PID.TID 0000.0001) %MON trcstat_ptracer24_max        =   8.8153867181972395E-04
(PID.TID 0000.0001) %MON trcstat_ptracer24_min        =   0.0000000000000000E+00
(PID.TID 0000.0001) %MON trcstat_ptracer24_mean       =   2.6284899836224797E-05
(PID.TID 0000.0001) %MON trcstat_ptracer24_sd         =   1.3780694875414800E-04
(PID.TID 0000.0001) %MON trcstat_ptracer24_del2       =   0.0000000000000000E+00
(PID.TID 0000.0001) %MON trcstat_ptracer25_max        =   8.8153867181972395E-04
(PID.TID 0000.0001) %MON trcstat_ptracer25_min        =   0.0000000000000000E+00
(PID.TID 0000.0001) %MON trcstat_ptracer25_mean       =   2.6284899836224797E-05
(PID.TID 0000.0001) %MON trcstat_ptracer25_sd         =   1.3780694875414800E-04
(PID.TID 0000.0001) %MON trcstat_ptracer25_del2       =   0.0000000000000000E+00
(PID.TID 0000.0001) %MON trcstat_ptracer26_max        =   8.8153867181972395E-04
(PID.TID 0000.0001) %MON trcstat_ptracer26_min        =   0.0000000000000000E+00
(PID.TID 0000.0001) %MON trcstat_ptracer26_mean       =   2.6284899836224797E-05
(PID.TID 0000.0001) %MON trcstat_ptracer26_sd         =   1.3780694875414800E-04
(PID.TID 0000.0001) %MON trcstat_ptracer26_del2       =   0.0000000000000000E+00
(PID.TID 0000.0001) %MON trcstat_ptracer27_max        =   8.8153867181972395E-04
(PID.TID 0000.0001) %MON trcstat_ptracer27_min        =   0.0000000000000000E+00
(PID.TID 0000.0001) %MON trcstat_ptracer27_mean       =   2.6284899836224797E-05
(PID.TID 0000.0001) %MON trcstat_ptracer27_sd         =   1.3780694875414800E-04
(PID.TID 0000.0001) %MON trcstat_ptracer27_del2       =   0.0000000000000000E+00
(PID.TID 0000.0001) %MON trcstat_ptracer28_max        =   8.8153867181972395E-04
(PID.TID 0000.0001) %MON trcstat_ptracer28_min        =   0.0000000000000000E+00
(PID.TID 0000.0001) %MON trcstat_ptracer28_mean       =   2.6284899836224797E-05
(PID.TID 0000.0001) %MON trcstat_ptracer28_sd         =   1.3780694875414800E-04
(PID.TID 0000.0001) %MON trcstat_ptracer28_del2       =   0.0000000000000000E+00
(PID.TID 0000.0001) %MON trcstat_ptracer29_max        =   8.8153867181972395E-04
(PID.TID 0000.0001) %MON trcstat_ptracer29_min        =   0.0000000000000000E+00
(PID.TID 0000.0001) %MON trcstat_ptracer29_mean       =   2.6284899836224797E-05
(PID.TID 0000.0001) %MON trcstat_ptracer29_sd         =   1.3780694875414800E-04
(PID.TID 0000.0001) %MON trcstat_ptracer29_del2       =   0.0000000000000000E+00
(PID.TID 0000.0001) %MON trcstat_ptracer30_max        =   8.8153867181972395E-04
(PID.TID 0000.0001) %MON trcstat_ptracer30_min        =   0.0000000000000000E+00
(PID.TID 0000.0001) %MON trcstat_ptracer30_mean       =   2.6284899836224797E-05
(PID.TID 0000.0001) %MON trcstat_ptracer30_sd         =   1.3780694875414800E-04
(PID.TID 0000.0001) %MON trcstat_ptracer30_del2       =   0.0000000000000000E+00
(PID.TID 0000.0001) %MON trcstat_ptracer31_max        =   8.8153867181972395E-04
(PID.TID 0000.0001) %MON trcstat_ptracer31_min        =   0.0000000000000000E+00
(PID.TID 0000.0001) %MON trcstat_ptracer31_mean       =   2.6284899836224797E-05
(PID.TID 0000.0001) %MON trcstat_ptracer31_sd         =   1.3780694875414800E-04
(PID.TID 0000.0001) %MON trcstat_ptracer31_del2       =   0.0000000000000000E+00
(PID.TID 0000.0001) %MON trcstat_ptracer32_max        =   8.8153867181972395E-04
(PID.TID 0000.0001) %MON trcstat_ptracer32_min        =   0.0000000000000000E+00
(PID.TID 0000.0001) %MON trcstat_ptracer32_mean       =   2.6284899836224797E-05
(PID.TID 0000.0001) %MON trcstat_ptracer32_sd         =   1.3780694875414800E-04
(PID.TID 0000.0001) %MON trcstat_ptracer32_del2       =   0.0000000000000000E+00
(PID.TID 0000.0001) %MON trcstat_ptracer33_max        =   8.8153867181972395E-04
(PID.TID 0000.0001) %MON trcstat_ptracer33_min        =   0.0000000000000000E+00
(PID.TID 0000.0001) %MON trcstat_ptracer33_mean       =   2.6284899836224797E-05
(PID.TID 0000.0001) %MON trcstat_ptracer33_sd         =   1.3780694875414800E-04
(PID.TID 0000.0001) %MON trcstat_ptracer33_del2       =   0.0000000000000000E+00
(PID.TID 0000.0001) %MON trcstat_ptracer34_max        =   8.8153867181972395E-04
(PID.TID 0000.0001) %MON trcstat_ptracer34_min        =   0.0000000000000000E+00
(PID.TID 0000.0001) %MON trcstat_ptracer34_mean       =   2.6284899836224797E-05
(PID.TID 0000.0001) %MON trcstat_ptracer34_sd         =   1.3780694875414800E-04
(PID.TID 0000.0001) %MON trcstat_ptracer34_del2       =   0.0000000000000000E+00
(PID.TID 0000.0001) %MON trcstat_ptracer35_max        =   8.8153867181972395E-04
(PID.TID 0000.0001) %MON trcstat_ptracer35_min        =   0.0000000000000000E+00
(PID.TID 0000.0001) %MON trcstat_ptracer35_mean       =   2.6284899836224797E-05
(PID.TID 0000.0001) %MON trcstat_ptracer35_sd         =   1.3780694875414800E-04
(PID.TID 0000.0001) %MON trcstat_ptracer35_del2       =   0.0000000000000000E+00
(PID.TID 0000.0001) %MON trcstat_ptracer36_max        =   8.8153867181972395E-04
(PID.TID 0000.0001) %MON trcstat_ptracer36_min        =   0.0000000000000000E+00
(PID.TID 0000.0001) %MON trcstat_ptracer36_mean       =   2.6284899836224797E-05
(PID.TID 0000.0001) %MON trcstat_ptracer36_sd         =   1.3780694875414800E-04
(PID.TID 0000.0001) %MON trcstat_ptracer36_del2       =   0.0000000000000000E+00
(PID.TID 0000.0001) %MON trcstat_ptracer37_max        =   8.8153867181972395E-04
(PID.TID 0000.0001) %MON trcstat_ptracer37_min        =   0.0000000000000000E+00
(PID.TID 0000.0001) %MON trcstat_ptracer37_mean       =   2.6284899836224797E-05
(PID.TID 0000.0001) %MON trcstat_ptracer37_sd         =   1.3780694875414800E-04
(PID.TID 0000.0001) %MON trcstat_ptracer37_del2       =   0.0000000000000000E+00
(PID.TID 0000.0001) %MON trcstat_ptracer38_max        =   8.8153867181972395E-04
(PID.TID 0000.0001) %MON trcstat_ptracer38_min        =   0.0000000000000000E+00
(PID.TID 0000.0001) %MON trcstat_ptracer38_mean       =   2.6284899836224797E-05
(PID.TID 0000.0001) %MON trcstat_ptracer38_sd         =   1.3780694875414800E-04
(PID.TID 0000.0001) %MON trcstat_ptracer38_del2       =   0.0000000000000000E+00
(PID.TID 0000.0001) %MON trcstat_ptracer39_max        =   8.8153867181972395E-04
(PID.TID 0000.0001) %MON trcstat_ptracer39_min        =   0.0000000000000000E+00
(PID.TID 0000.0001) %MON trcstat_ptracer39_mean       =   2.6284899836224797E-05
(PID.TID 0000.0001) %MON trcstat_ptracer39_sd         =   1.3780694875414800E-04
(PID.TID 0000.0001) %MON trcstat_ptracer39_del2       =   0.0000000000000000E+00
(PID.TID 0000.0001) %MON trcstat_ptracer40_max        =   8.8153867181972395E-04
(PID.TID 0000.0001) %MON trcstat_ptracer40_min        =   0.0000000000000000E+00
(PID.TID 0000.0001) %MON trcstat_ptracer40_mean       =   2.6284899836224797E-05
(PID.TID 0000.0001) %MON trcstat_ptracer40_sd         =   1.3780694875414800E-04
(PID.TID 0000.0001) %MON trcstat_ptracer40_del2       =   0.0000000000000000E+00
(PID.TID 0000.0001) %MON trcstat_ptracer41_max        =   8.8153867181972395E-04
(PID.TID 0000.0001) %MON trcstat_ptracer41_min        =   0.0000000000000000E+00
(PID.TID 0000.0001) %MON trcstat_ptracer41_mean       =   2.6284899836224797E-05
(PID.TID 0000.0001) %MON trcstat_ptracer41_sd         =   1.3780694875414800E-04
(PID.TID 0000.0001) %MON trcstat_ptracer41_del2       =   0.0000000000000000E+00
(PID.TID 0000.0001) %MON trcstat_ptracer42_max        =   8.8153867181972395E-04
(PID.TID 0000.0001) %MON trcstat_ptracer42_min        =   0.0000000000000000E+00
(PID.TID 0000.0001) %MON trcstat_ptracer42_mean       =   2.6284899836224797E-05
(PID.TID 0000.0001) %MON trcstat_ptracer42_sd         =   1.3780694875414800E-04
(PID.TID 0000.0001) %MON trcstat_ptracer42_del2       =   0.0000000000000000E+00
(PID.TID 0000.0001) %MON trcstat_ptracer43_max        =   8.8153867181972395E-04
(PID.TID 0000.0001) %MON trcstat_ptracer43_min        =   0.0000000000000000E+00
(PID.TID 0000.0001) %MON trcstat_ptracer43_mean       =   2.6284899836224797E-05
(PID.TID 0000.0001) %MON trcstat_ptracer43_sd         =   1.3780694875414800E-04
(PID.TID 0000.0001) %MON trcstat_ptracer43_del2       =   0.0000000000000000E+00
(PID.TID 0000.0001) %MON trcstat_ptracer44_max        =   8.8153867181972395E-04
(PID.TID 0000.0001) %MON trcstat_ptracer44_min        =   0.0000000000000000E+00
(PID.TID 0000.0001) %MON trcstat_ptracer44_mean       =   2.6284899836224797E-05
(PID.TID 0000.0001) %MON trcstat_ptracer44_sd         =   1.3780694875414800E-04
(PID.TID 0000.0001) %MON trcstat_ptracer44_del2       =   0.0000000000000000E+00
(PID.TID 0000.0001) %MON trcstat_ptracer45_max        =   8.8153867181972395E-04
(PID.TID 0000.0001) %MON trcstat_ptracer45_min        =   0.0000000000000000E+00
(PID.TID 0000.0001) %MON trcstat_ptracer45_mean       =   2.6284899836224797E-05
(PID.TID 0000.0001) %MON trcstat_ptracer45_sd         =   1.3780694875414800E-04
(PID.TID 0000.0001) %MON trcstat_ptracer45_del2       =   0.0000000000000000E+00
(PID.TID 0000.0001) %MON trcstat_ptracer46_max        =   8.8153867181972395E-04
(PID.TID 0000.0001) %MON trcstat_ptracer46_min        =   0.0000000000000000E+00
(PID.TID 0000.0001) %MON trcstat_ptracer46_mean       =   2.6284899836224797E-05
(PID.TID 0000.0001) %MON trcstat_ptracer46_sd         =   1.3780694875414800E-04
(PID.TID 0000.0001) %MON trcstat_ptracer46_del2       =   0.0000000000000000E+00
(PID.TID 0000.0001) %MON trcstat_ptracer47_max        =   8.8153867181972395E-04
(PID.TID 0000.0001) %MON trcstat_ptracer47_min        =   0.0000000000000000E+00
(PID.TID 0000.0001) %MON trcstat_ptracer47_mean       =   2.6284899836224797E-05
(PID.TID 0000.0001) %MON trcstat_ptracer47_sd         =   1.3780694875414800E-04
(PID.TID 0000.0001) %MON trcstat_ptracer47_del2       =   0.0000000000000000E+00
(PID.TID 0000.0001) %MON trcstat_ptracer48_max        =   8.8153867181972395E-04
(PID.TID 0000.0001) %MON trcstat_ptracer48_min        =   0.0000000000000000E+00
(PID.TID 0000.0001) %MON trcstat_ptracer48_mean       =   2.6284899836224797E-05
(PID.TID 0000.0001) %MON trcstat_ptracer48_sd         =   1.3780694875414800E-04
(PID.TID 0000.0001) %MON trcstat_ptracer48_del2       =   0.0000000000000000E+00
(PID.TID 0000.0001) %MON trcstat_ptracer49_max        =   8.8153867181972395E-04
(PID.TID 0000.0001) %MON trcstat_ptracer49_min        =   0.0000000000000000E+00
(PID.TID 0000.0001) %MON trcstat_ptracer49_mean       =   2.6284899836224797E-05
(PID.TID 0000.0001) %MON trcstat_ptracer49_sd         =   1.3780694875414800E-04
(PID.TID 0000.0001) %MON trcstat_ptracer49_del2       =   0.0000000000000000E+00
(PID.TID 0000.0001) %MON trcstat_ptracer50_max        =   8.8153867181972395E-04
(PID.TID 0000.0001) %MON trcstat_ptracer50_min        =   0.0000000000000000E+00
(PID.TID 0000.0001) %MON trcstat_ptracer50_mean       =   2.6284899836224797E-05
(PID.TID 0000.0001) %MON trcstat_ptracer50_sd         =   1.3780694875414800E-04
(PID.TID 0000.0001) %MON trcstat_ptracer50_del2       =   0.0000000000000000E+00
(PID.TID 0000.0001) %MON trcstat_ptracer51_max        =   8.8153867181972395E-04
(PID.TID 0000.0001) %MON trcstat_ptracer51_min        =   0.0000000000000000E+00
(PID.TID 0000.0001) %MON trcstat_ptracer51_mean       =   2.6284899836224797E-05
(PID.TID 0000.0001) %MON trcstat_ptracer51_sd         =   1.3780694875414800E-04
(PID.TID 0000.0001) %MON trcstat_ptracer51_del2       =   0.0000000000000000E+00
(PID.TID 0000.0001) %MON trcstat_ptracer52_max        =   8.8153867181972395E-04
(PID.TID 0000.0001) %MON trcstat_ptracer52_min        =   0.0000000000000000E+00
(PID.TID 0000.0001) %MON trcstat_ptracer52_mean       =   2.6284899836224797E-05
(PID.TID 0000.0001) %MON trcstat_ptracer52_sd         =   1.3780694875414800E-04
(PID.TID 0000.0001) %MON trcstat_ptracer52_del2       =   0.0000000000000000E+00
(PID.TID 0000.0001) %MON trcstat_ptracer53_max        =   8.8153867181972395E-04
(PID.TID 0000.0001) %MON trcstat_ptracer53_min        =   0.0000000000000000E+00
(PID.TID 0000.0001) %MON trcstat_ptracer53_mean       =   2.6284899836224797E-05
(PID.TID 0000.0001) %MON trcstat_ptracer53_sd         =   1.3780694875414800E-04
(PID.TID 0000.0001) %MON trcstat_ptracer53_del2       =   0.0000000000000000E+00
(PID.TID 0000.0001) %MON trcstat_ptracer54_max        =   8.8153867181972395E-04
(PID.TID 0000.0001) %MON trcstat_ptracer54_min        =   0.0000000000000000E+00
(PID.TID 0000.0001) %MON trcstat_ptracer54_mean       =   2.6284899836224797E-05
(PID.TID 0000.0001) %MON trcstat_ptracer54_sd         =   1.3780694875414800E-04
(PID.TID 0000.0001) %MON trcstat_ptracer54_del2       =   0.0000000000000000E+00
(PID.TID 0000.0001) %MON trcstat_ptracer55_max        =   8.8153867181972395E-04
(PID.TID 0000.0001) %MON trcstat_ptracer55_min        =   0.0000000000000000E+00
(PID.TID 0000.0001) %MON trcstat_ptracer55_mean       =   2.6284899836224797E-05
(PID.TID 0000.0001) %MON trcstat_ptracer55_sd         =   1.3780694875414800E-04
(PID.TID 0000.0001) %MON trcstat_ptracer55_del2       =   0.0000000000000000E+00
(PID.TID 0000.0001) %MON trcstat_ptracer56_max        =   8.8153867181972395E-04
(PID.TID 0000.0001) %MON trcstat_ptracer56_min        =   0.0000000000000000E+00
(PID.TID 0000.0001) %MON trcstat_ptracer56_mean       =   2.6284899836224797E-05
(PID.TID 0000.0001) %MON trcstat_ptracer56_sd         =   1.3780694875414800E-04
(PID.TID 0000.0001) %MON trcstat_ptracer56_del2       =   0.0000000000000000E+00
(PID.TID 0000.0001) %MON trcstat_ptracer57_max        =   8.8153867181972395E-04
(PID.TID 0000.0001) %MON trcstat_ptracer57_min        =   0.0000000000000000E+00
(PID.TID 0000.0001) %MON trcstat_ptracer57_mean       =   2.6284899836224797E-05
(PID.TID 0000.0001) %MON trcstat_ptracer57_sd         =   1.3780694875414800E-04
(PID.TID 0000.0001) %MON trcstat_ptracer57_del2       =   0.0000000000000000E+00
(PID.TID 0000.0001) %MON trcstat_ptracer58_max        =   8.8153867181972395E-04
(PID.TID 0000.0001) %MON trcstat_ptracer58_min        =   0.0000000000000000E+00
(PID.TID 0000.0001) %MON trcstat_ptracer58_mean       =   2.6284899836224797E-05
(PID.TID 0000.0001) %MON trcstat_ptracer58_sd         =   1.3780694875414800E-04
(PID.TID 0000.0001) %MON trcstat_ptracer58_del2       =   0.0000000000000000E+00
(PID.TID 0000.0001) %MON trcstat_ptracer59_max        =   8.8153867181972395E-04
(PID.TID 0000.0001) %MON trcstat_ptracer59_min        =   0.0000000000000000E+00
(PID.TID 0000.0001) %MON trcstat_ptracer59_mean       =   2.6284899836224797E-05
(PID.TID 0000.0001) %MON trcstat_ptracer59_sd         =   1.3780694875414800E-04
(PID.TID 0000.0001) %MON trcstat_ptracer59_del2       =   0.0000000000000000E+00
(PID.TID 0000.0001) %MON trcstat_ptracer60_max        =   8.8153867181972395E-04
(PID.TID 0000.0001) %MON trcstat_ptracer60_min        =   0.0000000000000000E+00
(PID.TID 0000.0001) %MON trcstat_ptracer60_mean       =   2.6284899836224797E-05
(PID.TID 0000.0001) %MON trcstat_ptracer60_sd         =   1.3780694875414800E-04
(PID.TID 0000.0001) %MON trcstat_ptracer60_del2       =   0.0000000000000000E+00
(PID.TID 0000.0001) %MON trcstat_ptracer61_max        =   8.8153867181972395E-04
(PID.TID 0000.0001) %MON trcstat_ptracer61_min        =   0.0000000000000000E+00
(PID.TID 0000.0001) %MON trcstat_ptracer61_mean       =   2.6284899836224797E-05
(PID.TID 0000.0001) %MON trcstat_ptracer61_sd         =   1.3780694875414800E-04
(PID.TID 0000.0001) %MON trcstat_ptracer61_del2       =   0.0000000000000000E+00
(PID.TID 0000.0001) %MON trcstat_ptracer62_max        =   8.8153867181972395E-04
(PID.TID 0000.0001) %MON trcstat_ptracer62_min        =   0.0000000000000000E+00
(PID.TID 0000.0001) %MON trcstat_ptracer62_mean       =   2.6284899836224797E-05
(PID.TID 0000.0001) %MON trcstat_ptracer62_sd         =   1.3780694875414800E-04
(PID.TID 0000.0001) %MON trcstat_ptracer62_del2       =   0.0000000000000000E+00
(PID.TID 0000.0001) %MON trcstat_ptracer63_max        =   8.8153867181972395E-04
(PID.TID 0000.0001) %MON trcstat_ptracer63_min        =   0.0000000000000000E+00
(PID.TID 0000.0001) %MON trcstat_ptracer63_mean       =   2.6284899836224797E-05
(PID.TID 0000.0001) %MON trcstat_ptracer63_sd         =   1.3780694875414800E-04
(PID.TID 0000.0001) %MON trcstat_ptracer63_del2       =   0.0000000000000000E+00
(PID.TID 0000.0001) %MON trcstat_ptracer64_max        =   8.8153867181972395E-04
(PID.TID 0000.0001) %MON trcstat_ptracer64_min        =   0.0000000000000000E+00
(PID.TID 0000.0001) %MON trcstat_ptracer64_mean       =   2.6284899836224797E-05
(PID.TID 0000.0001) %MON trcstat_ptracer64_sd         =   1.3780694875414800E-04
(PID.TID 0000.0001) %MON trcstat_ptracer64_del2       =   0.0000000000000000E+00
(PID.TID 0000.0001) %MON trcstat_ptracer65_max        =   8.8153867181972395E-04
(PID.TID 0000.0001) %MON trcstat_ptracer65_min        =   0.0000000000000000E+00
(PID.TID 0000.0001) %MON trcstat_ptracer65_mean       =   2.6284899836224797E-05
(PID.TID 0000.0001) %MON trcstat_ptracer65_sd         =   1.3780694875414800E-04
(PID.TID 0000.0001) %MON trcstat_ptracer65_del2       =   0.0000000000000000E+00
(PID.TID 0000.0001) %MON trcstat_ptracer66_max        =   8.8153867181972395E-04
(PID.TID 0000.0001) %MON trcstat_ptracer66_min        =   0.0000000000000000E+00
(PID.TID 0000.0001) %MON trcstat_ptracer66_mean       =   2.6284899836224797E-05
(PID.TID 0000.0001) %MON trcstat_ptracer66_sd         =   1.3780694875414800E-04
(PID.TID 0000.0001) %MON trcstat_ptracer66_del2       =   0.0000000000000000E+00
(PID.TID 0000.0001) %MON trcstat_ptracer67_max        =   8.8153867181972395E-04
(PID.TID 0000.0001) %MON trcstat_ptracer67_min        =   0.0000000000000000E+00
(PID.TID 0000.0001) %MON trcstat_ptracer67_mean       =   2.6284899836224797E-05
(PID.TID 0000.0001) %MON trcstat_ptracer67_sd         =   1.3780694875414800E-04
(PID.TID 0000.0001) %MON trcstat_ptracer67_del2       =   0.0000000000000000E+00
(PID.TID 0000.0001) %MON trcstat_ptracer68_max        =   8.8153867181972395E-04
(PID.TID 0000.0001) %MON trcstat_ptracer68_min        =   0.0000000000000000E+00
(PID.TID 0000.0001) %MON trcstat_ptracer68_mean       =   2.6284899836224797E-05
(PID.TID 0000.0001) %MON trcstat_ptracer68_sd         =   1.3780694875414800E-04
(PID.TID 0000.0001) %MON trcstat_ptracer68_del2       =   0.0000000000000000E+00
(PID.TID 0000.0001) %MON trcstat_ptracer69_max        =   8.8153867181972395E-04
(PID.TID 0000.0001) %MON trcstat_ptracer69_min        =   0.0000000000000000E+00
(PID.TID 0000.0001) %MON trcstat_ptracer69_mean       =   2.6284899836224797E-05
(PID.TID 0000.0001) %MON trcstat_ptracer69_sd         =   1.3780694875414800E-04
(PID.TID 0000.0001) %MON trcstat_ptracer69_del2       =   0.0000000000000000E+00
(PID.TID 0000.0001) %MON trcstat_ptracer70_max        =   8.8153867181972395E-04
(PID.TID 0000.0001) %MON trcstat_ptracer70_min        =   0.0000000000000000E+00
(PID.TID 0000.0001) %MON trcstat_ptracer70_mean       =   2.6284899836224797E-05
(PID.TID 0000.0001) %MON trcstat_ptracer70_sd         =   1.3780694875414800E-04
(PID.TID 0000.0001) %MON trcstat_ptracer70_del2       =   0.0000000000000000E+00
(PID.TID 0000.0001) %MON trcstat_ptracer71_max        =   8.8153867181972395E-04
(PID.TID 0000.0001) %MON trcstat_ptracer71_min        =   0.0000000000000000E+00
(PID.TID 0000.0001) %MON trcstat_ptracer71_mean       =   2.6284899836224797E-05
(PID.TID 0000.0001) %MON trcstat_ptracer71_sd         =   1.3780694875414800E-04
(PID.TID 0000.0001) %MON trcstat_ptracer71_del2       =   0.0000000000000000E+00
(PID.TID 0000.0001) %MON trcstat_ptracer72_max        =   8.8153867181972395E-04
(PID.TID 0000.0001) %MON trcstat_ptracer72_min        =   0.0000000000000000E+00
(PID.TID 0000.0001) %MON trcstat_ptracer72_mean       =   2.6284899836224797E-05
(PID.TID 0000.0001) %MON trcstat_ptracer72_sd         =   1.3780694875414800E-04
(PID.TID 0000.0001) %MON trcstat_ptracer72_del2       =   0.0000000000000000E+00
(PID.TID 0000.0001) %MON trcstat_ptracer73_max        =   8.8153867181972395E-04
(PID.TID 0000.0001) %MON trcstat_ptracer73_min        =   0.0000000000000000E+00
(PID.TID 0000.0001) %MON trcstat_ptracer73_mean       =   2.6284899836224797E-05
(PID.TID 0000.0001) %MON trcstat_ptracer73_sd         =   1.3780694875414800E-04
(PID.TID 0000.0001) %MON trcstat_ptracer73_del2       =   0.0000000000000000E+00
(PID.TID 0000.0001) %MON trcstat_ptracer74_max        =   8.8153867181972395E-04
(PID.TID 0000.0001) %MON trcstat_ptracer74_min        =   0.0000000000000000E+00
(PID.TID 0000.0001) %MON trcstat_ptracer74_mean       =   2.6284899836224797E-05
(PID.TID 0000.0001) %MON trcstat_ptracer74_sd         =   1.3780694875414800E-04
(PID.TID 0000.0001) %MON trcstat_ptracer74_del2       =   0.0000000000000000E+00
(PID.TID 0000.0001) %MON trcstat_ptracer75_max        =   8.8153867181972395E-04
(PID.TID 0000.0001) %MON trcstat_ptracer75_min        =   0.0000000000000000E+00
(PID.TID 0000.0001) %MON trcstat_ptracer75_mean       =   2.6284899836224797E-05
(PID.TID 0000.0001) %MON trcstat_ptracer75_sd         =   1.3780694875414800E-04
(PID.TID 0000.0001) %MON trcstat_ptracer75_del2       =   0.0000000000000000E+00
(PID.TID 0000.0001) %MON trcstat_ptracer76_max        =   8.8153867181972395E-04
(PID.TID 0000.0001) %MON trcstat_ptracer76_min        =   0.0000000000000000E+00
(PID.TID 0000.0001) %MON trcstat_ptracer76_mean       =   2.6284899836224797E-05
(PID.TID 0000.0001) %MON trcstat_ptracer76_sd         =   1.3780694875414800E-04
(PID.TID 0000.0001) %MON trcstat_ptracer76_del2       =   0.0000000000000000E+00
(PID.TID 0000.0001) %MON trcstat_ptracer77_max        =   8.8153867181972395E-04
(PID.TID 0000.0001) %MON trcstat_ptracer77_min        =   0.0000000000000000E+00
(PID.TID 0000.0001) %MON trcstat_ptracer77_mean       =   2.6284899836224797E-05
(PID.TID 0000.0001) %MON trcstat_ptracer77_sd         =   1.3780694875414800E-04
(PID.TID 0000.0001) %MON trcstat_ptracer77_del2       =   0.0000000000000000E+00
(PID.TID 0000.0001) %MON trcstat_ptracer78_max        =   8.8153867181972395E-04
(PID.TID 0000.0001) %MON trcstat_ptracer78_min        =   0.0000000000000000E+00
(PID.TID 0000.0001) %MON trcstat_ptracer78_mean       =   2.6284899836224797E-05
(PID.TID 0000.0001) %MON trcstat_ptracer78_sd         =   1.3780694875414800E-04
(PID.TID 0000.0001) %MON trcstat_ptracer78_del2       =   0.0000000000000000E+00
(PID.TID 0000.0001) %MON trcstat_ptracer79_max        =   8.8153867181972395E-04
(PID.TID 0000.0001) %MON trcstat_ptracer79_min        =   0.0000000000000000E+00
(PID.TID 0000.0001) %MON trcstat_ptracer79_mean       =   2.6284899836224797E-05
(PID.TID 0000.0001) %MON trcstat_ptracer79_sd         =   1.3780694875414800E-04
(PID.TID 0000.0001) %MON trcstat_ptracer79_del2       =   0.0000000000000000E+00
(PID.TID 0000.0001) %MON trcstat_ptracer80_max        =   8.8153867181972395E-04
(PID.TID 0000.0001) %MON trcstat_ptracer80_min        =   0.0000000000000000E+00
(PID.TID 0000.0001) %MON trcstat_ptracer80_mean       =   2.6284899836224797E-05
(PID.TID 0000.0001) %MON trcstat_ptracer80_sd         =   1.3780694875414800E-04
(PID.TID 0000.0001) %MON trcstat_ptracer80_del2       =   0.0000000000000000E+00
(PID.TID 0000.0001) %MON trcstat_ptracer81_max        =   8.8153867181972395E-04
(PID.TID 0000.0001) %MON trcstat_ptracer81_min        =   0.0000000000000000E+00
(PID.TID 0000.0001) %MON trcstat_ptracer81_mean       =   2.6284899836224797E-05
(PID.TID 0000.0001) %MON trcstat_ptracer81_sd         =   1.3780694875414800E-04
(PID.TID 0000.0001) %MON trcstat_ptracer81_del2       =   0.0000000000000000E+00
(PID.TID 0000.0001) %MON trcstat_ptracer82_max        =   8.8153867181972395E-04
(PID.TID 0000.0001) %MON trcstat_ptracer82_min        =   0.0000000000000000E+00
(PID.TID 0000.0001) %MON trcstat_ptracer82_mean       =   2.6284899836224797E-05
(PID.TID 0000.0001) %MON trcstat_ptracer82_sd         =   1.3780694875414800E-04
(PID.TID 0000.0001) %MON trcstat_ptracer82_del2       =   0.0000000000000000E+00
(PID.TID 0000.0001) %MON trcstat_ptracer83_max        =   8.8153867181972395E-04
(PID.TID 0000.0001) %MON trcstat_ptracer83_min        =   0.0000000000000000E+00
(PID.TID 0000.0001) %MON trcstat_ptracer83_mean       =   2.6284899836224797E-05
(PID.TID 0000.0001) %MON trcstat_ptracer83_sd         =   1.3780694875414800E-04
(PID.TID 0000.0001) %MON trcstat_ptracer83_del2       =   0.0000000000000000E+00
(PID.TID 0000.0001) %MON trcstat_ptracer84_max        =   8.8153867181972395E-04
(PID.TID 0000.0001) %MON trcstat_ptracer84_min        =   0.0000000000000000E+00
(PID.TID 0000.0001) %MON trcstat_ptracer84_mean       =   2.6284899836224797E-05
(PID.TID 0000.0001) %MON trcstat_ptracer84_sd         =   1.3780694875414800E-04
(PID.TID 0000.0001) %MON trcstat_ptracer84_del2       =   0.0000000000000000E+00
(PID.TID 0000.0001) %MON trcstat_ptracer85_max        =   8.8153867181972395E-04
(PID.TID 0000.0001) %MON trcstat_ptracer85_min        =   0.0000000000000000E+00
(PID.TID 0000.0001) %MON trcstat_ptracer85_mean       =   2.6284899836224797E-05
(PID.TID 0000.0001) %MON trcstat_ptracer85_sd         =   1.3780694875414800E-04
(PID.TID 0000.0001) %MON trcstat_ptracer85_del2       =   0.0000000000000000E+00
(PID.TID 0000.0001) %MON trcstat_ptracer86_max        =   8.8153867181972395E-04
(PID.TID 0000.0001) %MON trcstat_ptracer86_min        =   0.0000000000000000E+00
(PID.TID 0000.0001) %MON trcstat_ptracer86_mean       =   2.6284899836224797E-05
(PID.TID 0000.0001) %MON trcstat_ptracer86_sd         =   1.3780694875414800E-04
(PID.TID 0000.0001) %MON trcstat_ptracer86_del2       =   0.0000000000000000E+00
(PID.TID 0000.0001) %MON trcstat_ptracer87_max        =   8.8153867181972395E-04
(PID.TID 0000.0001) %MON trcstat_ptracer87_min        =   0.0000000000000000E+00
(PID.TID 0000.0001) %MON trcstat_ptracer87_mean       =   2.6284899836224797E-05
(PID.TID 0000.0001) %MON trcstat_ptracer87_sd         =   1.3780694875414800E-04
(PID.TID 0000.0001) %MON trcstat_ptracer87_del2       =   0.0000000000000000E+00
(PID.TID 0000.0001) %MON trcstat_ptracer88_max        =   8.8153867181972395E-04
(PID.TID 0000.0001) %MON trcstat_ptracer88_min        =   0.0000000000000000E+00
(PID.TID 0000.0001) %MON trcstat_ptracer88_mean       =   2.6284899836224797E-05
(PID.TID 0000.0001) %MON trcstat_ptracer88_sd         =   1.3780694875414800E-04
(PID.TID 0000.0001) %MON trcstat_ptracer88_del2       =   0.0000000000000000E+00
(PID.TID 0000.0001) %MON trcstat_ptracer89_max        =   8.8153867181972395E-04
(PID.TID 0000.0001) %MON trcstat_ptracer89_min        =   0.0000000000000000E+00
(PID.TID 0000.0001) %MON trcstat_ptracer89_mean       =   2.6284899836224797E-05
(PID.TID 0000.0001) %MON trcstat_ptracer89_sd         =   1.3780694875414800E-04
(PID.TID 0000.0001) %MON trcstat_ptracer89_del2       =   0.0000000000000000E+00
(PID.TID 0000.0001) %MON trcstat_ptracer90_max        =   8.8153867181972395E-04
(PID.TID 0000.0001) %MON trcstat_ptracer90_min        =   0.0000000000000000E+00
(PID.TID 0000.0001) %MON trcstat_ptracer90_mean       =   2.6284899836224797E-05
(PID.TID 0000.0001) %MON trcstat_ptracer90_sd         =   1.3780694875414800E-04
(PID.TID 0000.0001) %MON trcstat_ptracer90_del2       =   0.0000000000000000E+00
(PID.TID 0000.0001) %MON trcstat_ptracer91_max        =   8.8153867181972395E-04
(PID.TID 0000.0001) %MON trcstat_ptracer91_min        =   0.0000000000000000E+00
(PID.TID 0000.0001) %MON trcstat_ptracer91_mean       =   2.6284899836224797E-05
(PID.TID 0000.0001) %MON trcstat_ptracer91_sd         =   1.3780694875414800E-04
(PID.TID 0000.0001) %MON trcstat_ptracer91_del2       =   0.0000000000000000E+00
(PID.TID 0000.0001) %MON trcstat_ptracer92_max        =   8.8153867181972395E-04
(PID.TID 0000.0001) %MON trcstat_ptracer92_min        =   0.0000000000000000E+00
(PID.TID 0000.0001) %MON trcstat_ptracer92_mean       =   2.6284899836224797E-05
(PID.TID 0000.0001) %MON trcstat_ptracer92_sd         =   1.3780694875414800E-04
(PID.TID 0000.0001) %MON trcstat_ptracer92_del2       =   0.0000000000000000E+00
(PID.TID 0000.0001) %MON trcstat_ptracer93_max        =   8.8153867181972395E-04
(PID.TID 0000.0001) %MON trcstat_ptracer93_min        =   0.0000000000000000E+00
(PID.TID 0000.0001) %MON trcstat_ptracer93_mean       =   2.6284899836224797E-05
(PID.TID 0000.0001) %MON trcstat_ptracer93_sd         =   1.3780694875414800E-04
(PID.TID 0000.0001) %MON trcstat_ptracer93_del2       =   0.0000000000000000E+00
(PID.TID 0000.0001) %MON trcstat_ptracer94_max        =   8.8153867181972395E-04
(PID.TID 0000.0001) %MON trcstat_ptracer94_min        =   0.0000000000000000E+00
(PID.TID 0000.0001) %MON trcstat_ptracer94_mean       =   2.6284899836224797E-05
(PID.TID 0000.0001) %MON trcstat_ptracer94_sd         =   1.3780694875414800E-04
(PID.TID 0000.0001) %MON trcstat_ptracer94_del2       =   0.0000000000000000E+00
(PID.TID 0000.0001) %MON trcstat_ptracer95_max        =   8.8153867181972395E-04
(PID.TID 0000.0001) %MON trcstat_ptracer95_min        =   0.0000000000000000E+00
(PID.TID 0000.0001) %MON trcstat_ptracer95_mean       =   2.6284899836224797E-05
(PID.TID 0000.0001) %MON trcstat_ptracer95_sd         =   1.3780694875414800E-04
(PID.TID 0000.0001) %MON trcstat_ptracer95_del2       =   0.0000000000000000E+00
(PID.TID 0000.0001) %MON trcstat_ptracer96_max        =   8.8153867181972395E-04
(PID.TID 0000.0001) %MON trcstat_ptracer96_min        =   0.0000000000000000E+00
(PID.TID 0000.0001) %MON trcstat_ptracer96_mean       =   2.6284899836224797E-05
(PID.TID 0000.0001) %MON trcstat_ptracer96_sd         =   1.3780694875414800E-04
(PID.TID 0000.0001) %MON trcstat_ptracer96_del2       =   0.0000000000000000E+00
(PID.TID 0000.0001) %MON trcstat_ptracer97_max        =   1.2432850748922001E-07
(PID.TID 0000.0001) %MON trcstat_ptracer97_min        =   0.0000000000000000E+00
(PID.TID 0000.0001) %MON trcstat_ptracer97_mean       =   1.6442399905699201E-08
(PID.TID 0000.0001) %MON trcstat_ptracer97_sd         =   3.0074086738691997E-08
(PID.TID 0000.0001) %MON trcstat_ptracer97_del2       =   0.0000000000000000E+00
(PID.TID 0000.0001) %MON trcstat_ptracer98_max        =   1.2432850748922001E-07
(PID.TID 0000.0001) %MON trcstat_ptracer98_min        =   0.0000000000000000E+00
(PID.TID 0000.0001) %MON trcstat_ptracer98_mean       =   1.6442399905699201E-08
(PID.TID 0000.0001) %MON trcstat_ptracer98_sd         =   3.0074086738691997E-08
(PID.TID 0000.0001) %MON trcstat_ptracer98_del2       =   0.0000000000000000E+00
(PID.TID 0000.0001) %MON time_tsnumber                =                     1
(PID.TID 0000.0001) %MON time_secondsf                =   3.6000000000000E+03
(PID.TID 0000.0001) %MON dynstat_eta_max              =   0.0000000000000E+00
(PID.TID 0000.0001) %MON dynstat_eta_min              =   0.0000000000000E+00
(PID.TID 0000.0001) %MON dynstat_eta_mean             =   0.0000000000000E+00
(PID.TID 0000.0001) %MON dynstat_eta_sd               =   0.0000000000000E+00
(PID.TID 0000.0001) %MON dynstat_eta_del2             =   0.0000000000000E+00
(PID.TID 0000.0001) %MON dynstat_uvel_max             =   0.0000000000000E+00
(PID.TID 0000.0001) %MON dynstat_uvel_min             =   0.0000000000000E+00
(PID.TID 0000.0001) %MON dynstat_uvel_mean            =   0.0000000000000E+00
(PID.TID 0000.0001) %MON dynstat_uvel_sd              =   0.0000000000000E+00
(PID.TID 0000.0001) %MON dynstat_uvel_del2            =   0.0000000000000E+00
(PID.TID 0000.0001) %MON dynstat_vvel_max             =   0.0000000000000E+00
(PID.TID 0000.0001) %MON dynstat_vvel_min             =   0.0000000000000E+00
(PID.TID 0000.0001) %MON dynstat_vvel_mean            =   0.0000000000000E+00
(PID.TID 0000.0001) %MON dynstat_vvel_sd              =   0.0000000000000E+00
(PID.TID 0000.0001) %MON dynstat_vvel_del2            =   0.0000000000000E+00
(PID.TID 0000.0001) %MON dynstat_wvel_max             =   0.0000000000000E+00
(PID.TID 0000.0001) %MON dynstat_wvel_min             =   0.0000000000000E+00
(PID.TID 0000.0001) %MON dynstat_wvel_mean            =   0.0000000000000E+00
(PID.TID 0000.0001) %MON dynstat_wvel_sd              =   0.0000000000000E+00
(PID.TID 0000.0001) %MON dynstat_wvel_del2            =   0.0000000000000E+00
(PID.TID 0000.0001) %MON dynstat_theta_max            =   2.6335817374515E+01
(PID.TID 0000.0001) %MON dynstat_theta_min            =   2.6737003185748E+00
(PID.TID 0000.0001) %MON dynstat_theta_mean           =   5.4735670012030E+00
(PID.TID 0000.0001) %MON dynstat_theta_sd             =   5.1970860626953E+00
(PID.TID 0000.0001) %MON dynstat_theta_del2           =   0.0000000000000E+00
(PID.TID 0000.0001) %MON dynstat_salt_max             =   3.5000000000000E+01
(PID.TID 0000.0001) %MON dynstat_salt_min             =   3.5000000000000E+01
(PID.TID 0000.0001) %MON dynstat_salt_mean            =   3.5000000000000E+01
(PID.TID 0000.0001) %MON dynstat_salt_sd              =   7.1054273576010E-15
(PID.TID 0000.0001) %MON dynstat_salt_del2            =   0.0000000000000E+00
(PID.TID 0000.0001) %MON dynstat_sst_max              =   2.6335817374515E+01
(PID.TID 0000.0001) %MON dynstat_sst_min              =   2.6335817374515E+01
(PID.TID 0000.0001) %MON dynstat_sst_mean             =   2.6335817374515E+01
(PID.TID 0000.0001) %MON dynstat_sst_sd               =   0.0000000000000E+00
(PID.TID 0000.0001) %MON dynstat_sst_del2             =   0.0000000000000E+00
(PID.TID 0000.0001) %MON dynstat_sss_max              =   3.5000000000000E+01
(PID.TID 0000.0001) %MON dynstat_sss_min              =   3.5000000000000E+01
(PID.TID 0000.0001) %MON dynstat_sss_mean             =   3.5000000000000E+01
(PID.TID 0000.0001) %MON dynstat_sss_sd               =   0.0000000000000E+00
(PID.TID 0000.0001) %MON dynstat_sss_del2             =   0.0000000000000E+00
(PID.TID 0000.0001) %MON forcing_qnet_max             =   0.0000000000000E+00
(PID.TID 0000.0001) %MON forcing_qnet_min             =   0.0000000000000E+00
(PID.TID 0000.0001) %MON forcing_qnet_mean            =   0.0000000000000E+00
(PID.TID 0000.0001) %MON forcing_qnet_sd              =   0.0000000000000E+00
(PID.TID 0000.0001) %MON forcing_qnet_del2            =   0.0000000000000E+00
(PID.TID 0000.0001) %MON forcing_qsw_max              =   0.0000000000000E+00
(PID.TID 0000.0001) %MON forcing_qsw_min              =   0.0000000000000E+00
(PID.TID 0000.0001) %MON forcing_qsw_mean             =   0.0000000000000E+00
(PID.TID 0000.0001) %MON forcing_qsw_sd               =   0.0000000000000E+00
(PID.TID 0000.0001) %MON forcing_qsw_del2             =   0.0000000000000E+00
(PID.TID 0000.0001) %MON forcing_empmr_max            =   0.0000000000000E+00
(PID.TID 0000.0001) %MON forcing_empmr_min            =   0.0000000000000E+00
(PID.TID 0000.0001) %MON forcing_empmr_mean           =   0.0000000000000E+00
(PID.TID 0000.0001) %MON forcing_empmr_sd             =   0.0000000000000E+00
(PID.TID 0000.0001) %MON forcing_empmr_del2           =   0.0000000000000E+00
(PID.TID 0000.0001) %MON forcing_fu_max               =   0.0000000000000E+00
(PID.TID 0000.0001) %MON forcing_fu_min               =   0.0000000000000E+00
(PID.TID 0000.0001) %MON forcing_fu_mean              =   0.0000000000000E+00
(PID.TID 0000.0001) %MON forcing_fu_sd                =   0.0000000000000E+00
(PID.TID 0000.0001) %MON forcing_fu_del2              =   0.0000000000000E+00
(PID.TID 0000.0001) %MON forcing_fv_max               =   0.0000000000000E+00
(PID.TID 0000.0001) %MON forcing_fv_min               =   0.0000000000000E+00
(PID.TID 0000.0001) %MON forcing_fv_mean              =   0.0000000000000E+00
(PID.TID 0000.0001) %MON forcing_fv_sd                =   0.0000000000000E+00
(PID.TID 0000.0001) %MON forcing_fv_del2              =   0.0000000000000E+00
(PID.TID 0000.0001) %MON advcfl_uvel_max              =   0.0000000000000E+00
(PID.TID 0000.0001) %MON advcfl_vvel_max              =   0.0000000000000E+00
(PID.TID 0000.0001) %MON advcfl_wvel_max              =   0.0000000000000E+00
(PID.TID 0000.0001) %MON advcfl_W_hf_max              =   0.0000000000000E+00
(PID.TID 0000.0001) %MON pe_b_mean                    =   0.0000000000000E+00
(PID.TID 0000.0001) %MON ke_max                       =   0.0000000000000E+00
(PID.TID 0000.0001) %MON ke_mean                      =   0.0000000000000E+00
(PID.TID 0000.0001) %MON ke_vol                       =   4.1199767883485E+13
(PID.TID 0000.0001) %MON vort_r_min                   =   0.0000000000000E+00
(PID.TID 0000.0001) %MON vort_r_max                   =   0.0000000000000E+00
(PID.TID 0000.0001) %MON vort_a_mean                  =  -4.5067801836625E-05
(PID.TID 0000.0001) %MON vort_a_sd                    =  -4.1359030627651E-25
(PID.TID 0000.0001) %MON vort_p_mean                  =  -4.5067801836625E-05
(PID.TID 0000.0001) %MON vort_p_sd                    =   0.0000000000000E+00
(PID.TID 0000.0001) %MON surfExpan_theta_mean         =   0.0000000000000E+00
(PID.TID 0000.0001) %MON surfExpan_salt_mean          =   0.0000000000000E+00
(PID.TID 0000.0001) %MON trcstat_ptracer01_max        =                      NAN
(PID.TID 0000.0001) %MON trcstat_ptracer01_min        =                      NAN
(PID.TID 0000.0001) %MON trcstat_ptracer01_mean       =                      NAN
(PID.TID 0000.0001) %MON trcstat_ptracer01_sd         =                      NAN
(PID.TID 0000.0001) %MON trcstat_ptracer01_del2       =                      NAN
(PID.TID 0000.0001) %MON trcstat_ptracer02_max        =   2.3480169372171001E-02
(PID.TID 0000.0001) %MON trcstat_ptracer02_min        =   1.7199487607700001E-07
(PID.TID 0000.0001) %MON trcstat_ptracer02_mean       =   5.6344064727415996E-04
(PID.TID 0000.0001) %MON trcstat_ptracer02_sd         =   3.0246937889403000E-03
(PID.TID 0000.0001) %MON trcstat_ptracer02_del2       =   0.0000000000000000E+00
(PID.TID 0000.0001) %MON trcstat_ptracer03_max        =   1.8440405081267999E-02
(PID.TID 0000.0001) %MON trcstat_ptracer03_min        =   3.8791489719393999E-06
(PID.TID 0000.0001) %MON trcstat_ptracer03_mean       =   6.4376226016928995E-04
(PID.TID 0000.0001) %MON trcstat_ptracer03_sd         =   2.0403702830536002E-03
(PID.TID 0000.0001) %MON trcstat_ptracer03_del2       =   0.0000000000000000E+00
(PID.TID 0000.0001) %MON trcstat_ptracer04_max        =   3.3903497946887001E+01
(PID.TID 0000.0001) %MON trcstat_ptracer04_min        =   4.6417536541071003E-02
(PID.TID 0000.0001) %MON trcstat_ptracer04_mean       =   2.3502392208972001E+01
(PID.TID 0000.0001) %MON trcstat_ptracer04_sd         =   7.8161955949079003E+00
(PID.TID 0000.0001) %MON trcstat_ptracer04_del2       =   0.0000000000000000E+00
(PID.TID 0000.0001) %MON trcstat_ptracer05_max        =   2.2436998099664001E+00
(PID.TID 0000.0001) %MON trcstat_ptracer05_min        =   2.1025296349062000E-01
(PID.TID 0000.0001) %MON trcstat_ptracer05_mean       =   1.5821338290936000E+00
(PID.TID 0000.0001) %MON trcstat_ptracer05_sd         =   4.6735025019102999E-01
(PID.TID 0000.0001) %MON trcstat_ptracer05_del2       =   0.0000000000000000E+00
(PID.TID 0000.0001) %MON trcstat_ptracer06_max        =   3.9387401347896997E+01
(PID.TID 0000.0001) %MON trcstat_ptracer06_min        =   1.2248048835386001E+00
(PID.TID 0000.0001) %MON trcstat_ptracer06_mean       =   2.9621889551519001E+01
(PID.TID 0000.0001) %MON trcstat_ptracer06_sd         =   1.1270586413568999E+01
(PID.TID 0000.0001) %MON trcstat_ptracer06_del2       =   0.0000000000000000E+00
(PID.TID 0000.0001) %MON trcstat_ptracer07_max        =   1.3001303028801999E-03
(PID.TID 0000.0001) %MON trcstat_ptracer07_min        =   1.2999853926150000E-03
(PID.TID 0000.0001) %MON trcstat_ptracer07_mean       =   1.2999858882950001E-03
(PID.TID 0000.0001) %MON trcstat_ptracer07_sd         =   7.7441591453375998E-09
(PID.TID 0000.0001) %MON trcstat_ptracer07_del2       =   0.0000000000000000E+00
(PID.TID 0000.0001) %MON trcstat_ptracer08_max        =   6.1534280588403600E-01
(PID.TID 0000.0001) %MON trcstat_ptracer08_min        =   1.1494034532033480E-07
(PID.TID 0000.0001) %MON trcstat_ptracer08_mean       =   2.5783709256882000E-02
(PID.TID 0000.0001) %MON trcstat_ptracer08_sd         =   1.1097792650831520E-01
(PID.TID 0000.0001) %MON trcstat_ptracer08_del2       =   0.0000000000000000E+00
(PID.TID 0000.0001) %MON trcstat_ptracer09_max        =   8.2045707451204999E-02
(PID.TID 0000.0001) %MON trcstat_ptracer09_min        =   1.5325379376045000E-08
(PID.TID 0000.0001) %MON trcstat_ptracer09_mean       =   3.4378279009176999E-03
(PID.TID 0000.0001) %MON trcstat_ptracer09_sd         =   1.4797056867775001E-02
(PID.TID 0000.0001) %MON trcstat_ptracer09_del2       =   0.0000000000000000E+00
(PID.TID 0000.0001) %MON trcstat_ptracer10_max        =   5.1278567157003003E-03
(PID.TID 0000.0001) %MON trcstat_ptracer10_min        =   9.5783621100278997E-10
(PID.TID 0000.0001) %MON trcstat_ptracer10_mean       =   2.1486424380735001E-04
(PID.TID 0000.0001) %MON trcstat_ptracer10_sd         =   9.2481605423595998E-04
(PID.TID 0000.0001) %MON trcstat_ptracer10_del2       =   0.0000000000000000E+00
(PID.TID 0000.0001) %MON trcstat_ptracer11_max        =   5.1278567046640003E-06
(PID.TID 0000.0001) %MON trcstat_ptracer11_min        =   9.5783610368125004E-13
(PID.TID 0000.0001) %MON trcstat_ptracer11_mean       =   2.1486424411417001E-07
(PID.TID 0000.0001) %MON trcstat_ptracer11_sd         =   9.2481605388680995E-07
(PID.TID 0000.0001) %MON trcstat_ptracer11_del2       =   0.0000000000000000E+00
(PID.TID 0000.0001) %MON trcstat_ptracer12_max        =   3.2667984171676802E-02
(PID.TID 0000.0001) %MON trcstat_ptracer12_min        =   1.4086367136038400E-04
(PID.TID 0000.0001) %MON trcstat_ptracer12_mean       =   9.4670153887028395E-03
(PID.TID 0000.0001) %MON trcstat_ptracer12_sd         =   1.1587812571471680E-02
(PID.TID 0000.0001) %MON trcstat_ptracer12_del2       =   0.0000000000000000E+00
(PID.TID 0000.0001) %MON trcstat_ptracer13_max        =   4.3557312228902001E-03
(PID.TID 0000.0001) %MON trcstat_ptracer13_min        =   1.8781822848050001E-05
(PID.TID 0000.0001) %MON trcstat_ptracer13_mean       =   1.2622687184937001E-03
(PID.TID 0000.0001) %MON trcstat_ptracer13_sd         =   1.5450416761962000E-03
(PID.TID 0000.0001) %MON trcstat_ptracer13_del2       =   0.0000000000000000E+00
(PID.TID 0000.0001) %MON trcstat_ptracer14_max        =   2.7223320143064000E-04
(PID.TID 0000.0001) %MON trcstat_ptracer14_min        =   1.1738639280032000E-06
(PID.TID 0000.0001) %MON trcstat_ptracer14_mean       =   7.8891794905857000E-05
(PID.TID 0000.0001) %MON trcstat_ptracer14_sd         =   9.6565104762264003E-05
(PID.TID 0000.0001) %MON trcstat_ptracer14_del2       =   0.0000000000000000E+00
(PID.TID 0000.0001) %MON trcstat_ptracer15_max        =   1.6249560323349000E-02
(PID.TID 0000.0001) %MON trcstat_ptracer15_min        =   1.1386925448278000E-03
(PID.TID 0000.0001) %MON trcstat_ptracer15_mean       =   5.4889823684651003E-03
(PID.TID 0000.0001) %MON trcstat_ptracer15_sd         =   5.1715467239950002E-03
(PID.TID 0000.0001) %MON trcstat_ptracer15_del2       =   0.0000000000000000E+00
(PID.TID 0000.0001) %MON trcstat_ptracer16_max        =   2.7223321719346002E-07
(PID.TID 0000.0001) %MON trcstat_ptracer16_min        =   1.1738637993409001E-09
(PID.TID 0000.0001) %MON trcstat_ptracer16_mean       =   7.8891795432037996E-08
(PID.TID 0000.0001) %MON trcstat_ptracer16_sd         =   9.6565106819749995E-08
(PID.TID 0000.0001) %MON trcstat_ptracer16_del2       =   0.0000000000000000E+00
(PID.TID 0000.0001) %MON trcstat_ptracer17_max        =                      NAN
(PID.TID 0000.0001) %MON trcstat_ptracer17_min        =                      NAN
(PID.TID 0000.0001) %MON trcstat_ptracer17_mean       =                      NAN
(PID.TID 0000.0001) %MON trcstat_ptracer17_sd         =                      NAN
(PID.TID 0000.0001) %MON trcstat_ptracer17_del2       =                      NAN
(PID.TID 0000.0001) %MON trcstat_ptracer18_max        =   5.1114208633634001E-03
(PID.TID 0000.0001) %MON trcstat_ptracer18_min        =   1.9547677775567001E-11
(PID.TID 0000.0001) %MON trcstat_ptracer18_mean       =   2.1462809504867999E-04
(PID.TID 0000.0001) %MON trcstat_ptracer18_sd         =   9.2388971311295996E-04
(PID.TID 0000.0001) %MON trcstat_ptracer18_del2       =   0.0000000000000000E+00
(PID.TID 0000.0001) %MON trcstat_ptracer19_max        =   8.7784040723648408E-04
(PID.TID 0000.0001) %MON trcstat_ptracer19_min        =   1.1455106270730002E-34
(PID.TID 0000.0001) %MON trcstat_ptracer19_mean       =   2.6175379415807999E-05
(PID.TID 0000.0001) %MON trcstat_ptracer19_sd         =   1.3721453424017999E-04
(PID.TID 0000.0001) %MON trcstat_ptracer19_del2       =   0.0000000000000000E+00
(PID.TID 0000.0001) %MON trcstat_ptracer20_max        =   8.7785894917749596E-04
(PID.TID 0000.0001) %MON trcstat_ptracer20_min        =   3.9452493772007999E-37
(PID.TID 0000.0001) %MON trcstat_ptracer20_mean       =   2.6195123705510400E-05
(PID.TID 0000.0001) %MON trcstat_ptracer20_sd         =   1.3735037678816401E-04
(PID.TID 0000.0001) %MON trcstat_ptracer20_del2       =   0.0000000000000000E+00
(PID.TID 0000.0001) %MON trcstat_ptracer21_max        =   8.7784040723648408E-04
(PID.TID 0000.0001) %MON trcstat_ptracer21_min        =   1.1455106270730002E-34
(PID.TID 0000.0001) %MON trcstat_ptracer21_mean       =   2.6175379415809202E-05
(PID.TID 0000.0001) %MON trcstat_ptracer21_sd         =   1.3721453424017999E-04
(PID.TID 0000.0001) %MON trcstat_ptracer21_del2       =   0.0000000000000000E+00
(PID.TID 0000.0001) %MON trcstat_ptracer22_max        =   8.7784040723648408E-04
(PID.TID 0000.0001) %MON trcstat_ptracer22_min        =   1.1455106270730002E-34
(PID.TID 0000.0001) %MON trcstat_ptracer22_mean       =   2.6206400545561199E-05
(PID.TID 0000.0001) %MON trcstat_ptracer22_sd         =   1.3740068733153599E-04
(PID.TID 0000.0001) %MON trcstat_ptracer22_del2       =   0.0000000000000000E+00
(PID.TID 0000.0001) %MON trcstat_ptracer23_max        =   8.7785894917749596E-04
(PID.TID 0000.0001) %MON trcstat_ptracer23_min        =   3.9452493772007999E-37
(PID.TID 0000.0001) %MON trcstat_ptracer23_mean       =   2.6214393717646800E-05
(PID.TID 0000.0001) %MON trcstat_ptracer23_sd         =   1.3746655730667600E-04
(PID.TID 0000.0001) %MON trcstat_ptracer23_del2       =   0.0000000000000000E+00
(PID.TID 0000.0001) %MON trcstat_ptracer24_max        =   8.7785894917749596E-04
(PID.TID 0000.0001) %MON trcstat_ptracer24_min        =   3.9452493772007999E-37
(PID.TID 0000.0001) %MON trcstat_ptracer24_mean       =   2.6175379413904800E-05
(PID.TID 0000.0001) %MON trcstat_ptracer24_sd         =   1.3723205447389199E-04
(PID.TID 0000.0001) %MON trcstat_ptracer24_del2       =   0.0000000000000000E+00
(PID.TID 0000.0001) %MON trcstat_ptracer25_max        =   8.7785894917749596E-04
(PID.TID 0000.0001) %MON trcstat_ptracer25_min        =   3.9452493772007999E-37
(PID.TID 0000.0001) %MON trcstat_ptracer25_mean       =   2.6185658402032802E-05
(PID.TID 0000.0001) %MON trcstat_ptracer25_sd         =   1.3729347727184401E-04
(PID.TID 0000.0001) %MON trcstat_ptracer25_del2       =   0.0000000000000000E+00
(PID.TID 0000.0001) %MON trcstat_ptracer26_max        =   8.7785894917749596E-04
(PID.TID 0000.0001) %MON trcstat_ptracer26_min        =   3.9452493772007999E-37
(PID.TID 0000.0001) %MON trcstat_ptracer26_mean       =   2.6175379413903598E-05
(PID.TID 0000.0001) %MON trcstat_ptracer26_sd         =   1.3723205447388001E-04
(PID.TID 0000.0001) %MON trcstat_ptracer26_del2       =   0.0000000000000000E+00
(PID.TID 0000.0001) %MON trcstat_ptracer27_max        =   8.7785894917749596E-04
(PID.TID 0000.0001) %MON trcstat_ptracer27_min        =   3.9452493772007999E-37
(PID.TID 0000.0001) %MON trcstat_ptracer27_mean       =   2.6176472625098398E-05
(PID.TID 0000.0001) %MON trcstat_ptracer27_sd         =   1.3723870958672399E-04
(PID.TID 0000.0001) %MON trcstat_ptracer27_del2       =   0.0000000000000000E+00
(PID.TID 0000.0001) %MON trcstat_ptracer28_max        =   8.7785894917749596E-04
(PID.TID 0000.0001) %MON trcstat_ptracer28_min        =   3.9452493772007999E-37
(PID.TID 0000.0001) %MON trcstat_ptracer28_mean       =   2.6217726852075601E-05
(PID.TID 0000.0001) %MON trcstat_ptracer28_sd         =   1.3748649177403198E-04
(PID.TID 0000.0001) %MON trcstat_ptracer28_del2       =   0.0000000000000000E+00
(PID.TID 0000.0001) %MON trcstat_ptracer29_max        =   8.7785894917749596E-04
(PID.TID 0000.0001) %MON trcstat_ptracer29_min        =   3.9452493772007999E-37
(PID.TID 0000.0001) %MON trcstat_ptracer29_mean       =   2.6175379413906000E-05
(PID.TID 0000.0001) %MON trcstat_ptracer29_sd         =   1.3723205447390400E-04
(PID.TID 0000.0001) %MON trcstat_ptracer29_del2       =   0.0000000000000000E+00
(PID.TID 0000.0001) %MON trcstat_ptracer30_max        =   8.7785894917749596E-04
(PID.TID 0000.0001) %MON trcstat_ptracer30_min        =   3.9452493772007999E-37
(PID.TID 0000.0001) %MON trcstat_ptracer30_mean       =   2.6175379413903598E-05
(PID.TID 0000.0001) %MON trcstat_ptracer30_sd         =   1.3723205447388001E-04
(PID.TID 0000.0001) %MON trcstat_ptracer30_del2       =   0.0000000000000000E+00
(PID.TID 0000.0001) %MON trcstat_ptracer31_max        =   8.7784040716842003E-04
(PID.TID 0000.0001) %MON trcstat_ptracer31_min        =   1.1455106270730002E-34
(PID.TID 0000.0001) %MON trcstat_ptracer31_mean       =   2.6175379413906000E-05
(PID.TID 0000.0001) %MON trcstat_ptracer31_sd         =   1.3721453422994401E-04
(PID.TID 0000.0001) %MON trcstat_ptracer31_del2       =   0.0000000000000000E+00
(PID.TID 0000.0001) %MON trcstat_ptracer32_max        =   8.7785894917749596E-04
(PID.TID 0000.0001) %MON trcstat_ptracer32_min        =   3.9452493772007999E-37
(PID.TID 0000.0001) %MON trcstat_ptracer32_mean       =   2.6175379413903598E-05
(PID.TID 0000.0001) %MON trcstat_ptracer32_sd         =   1.3723205447388001E-04
(PID.TID 0000.0001) %MON trcstat_ptracer32_del2       =   0.0000000000000000E+00
(PID.TID 0000.0001) %MON trcstat_ptracer33_max        =   8.7785894917749596E-04
(PID.TID 0000.0001) %MON trcstat_ptracer33_min        =   3.9452493772007999E-37
(PID.TID 0000.0001) %MON trcstat_ptracer33_mean       =   2.6209351905806401E-05
(PID.TID 0000.0001) %MON trcstat_ptracer33_sd         =   1.3743568134296400E-04
(PID.TID 0000.0001) %MON trcstat_ptracer33_del2       =   0.0000000000000000E+00
(PID.TID 0000.0001) %MON trcstat_ptracer34_max        =   8.7784040723648408E-04
(PID.TID 0000.0001) %MON trcstat_ptracer34_min        =   1.1455106270730002E-34
(PID.TID 0000.0001) %MON trcstat_ptracer34_mean       =   2.6175379415809202E-05
(PID.TID 0000.0001) %MON trcstat_ptracer34_sd         =   1.3721453424019199E-04
(PID.TID 0000.0001) %MON trcstat_ptracer34_del2       =   0.0000000000000000E+00
(PID.TID 0000.0001) %MON trcstat_ptracer35_max        =   8.7784040723648408E-04
(PID.TID 0000.0001) %MON trcstat_ptracer35_min        =   1.1455106270730002E-34
(PID.TID 0000.0001) %MON trcstat_ptracer35_mean       =   2.6175379415809202E-05
(PID.TID 0000.0001) %MON trcstat_ptracer35_sd         =   1.3721453424019199E-04
(PID.TID 0000.0001) %MON trcstat_ptracer35_del2       =   0.0000000000000000E+00
(PID.TID 0000.0001) %MON trcstat_ptracer36_max        =   8.7785894917749596E-04
(PID.TID 0000.0001) %MON trcstat_ptracer36_min        =   3.9452493772007999E-37
(PID.TID 0000.0001) %MON trcstat_ptracer36_mean       =   2.6175379413906000E-05
(PID.TID 0000.0001) %MON trcstat_ptracer36_sd         =   1.3723205447390400E-04
(PID.TID 0000.0001) %MON trcstat_ptracer36_del2       =   0.0000000000000000E+00
(PID.TID 0000.0001) %MON trcstat_ptracer37_max        =   8.7784040723648408E-04
(PID.TID 0000.0001) %MON trcstat_ptracer37_min        =   1.1455106270730002E-34
(PID.TID 0000.0001) %MON trcstat_ptracer37_mean       =   2.6189788651966801E-05
(PID.TID 0000.0001) %MON trcstat_ptracer37_sd         =   1.3730103188173200E-04
(PID.TID 0000.0001) %MON trcstat_ptracer37_del2       =   0.0000000000000000E+00
(PID.TID 0000.0001) %MON trcstat_ptracer38_max        =   8.7784040716842003E-04
(PID.TID 0000.0001) %MON trcstat_ptracer38_min        =   1.1455106270730002E-34
(PID.TID 0000.0001) %MON trcstat_ptracer38_mean       =   2.6175379413906000E-05
(PID.TID 0000.0001) %MON trcstat_ptracer38_sd         =   1.3721453422994401E-04
(PID.TID 0000.0001) %MON trcstat_ptracer38_del2       =   0.0000000000000000E+00
(PID.TID 0000.0001) %MON trcstat_ptracer39_max        =   8.7784040716842003E-04
(PID.TID 0000.0001) %MON trcstat_ptracer39_min        =   1.1455106270730002E-34
(PID.TID 0000.0001) %MON trcstat_ptracer39_mean       =   2.6177354727824402E-05
(PID.TID 0000.0001) %MON trcstat_ptracer39_sd         =   1.3722651144791999E-04
(PID.TID 0000.0001) %MON trcstat_ptracer39_del2       =   0.0000000000000000E+00
(PID.TID 0000.0001) %MON trcstat_ptracer40_max        =   8.7784040723648408E-04
(PID.TID 0000.0001) %MON trcstat_ptracer40_min        =   1.1455106270730002E-34
(PID.TID 0000.0001) %MON trcstat_ptracer40_mean       =   2.6216311507552799E-05
(PID.TID 0000.0001) %MON trcstat_ptracer40_sd         =   1.3746003796885202E-04
(PID.TID 0000.0001) %MON trcstat_ptracer40_del2       =   0.0000000000000000E+00
(PID.TID 0000.0001) %MON trcstat_ptracer41_max        =   8.7785894917749596E-04
(PID.TID 0000.0001) %MON trcstat_ptracer41_min        =   3.9452493772007999E-37
(PID.TID 0000.0001) %MON trcstat_ptracer41_mean       =   2.6175379413904800E-05
(PID.TID 0000.0001) %MON trcstat_ptracer41_sd         =   1.3723205447389199E-04
(PID.TID 0000.0001) %MON trcstat_ptracer41_del2       =   0.0000000000000000E+00
(PID.TID 0000.0001) %MON trcstat_ptracer42_max        =   8.7784040716842003E-04
(PID.TID 0000.0001) %MON trcstat_ptracer42_min        =   1.1455106270730002E-34
(PID.TID 0000.0001) %MON trcstat_ptracer42_mean       =   2.6175379413904800E-05
(PID.TID 0000.0001) %MON trcstat_ptracer42_sd         =   1.3721453422993200E-04
(PID.TID 0000.0001) %MON trcstat_ptracer42_del2       =   0.0000000000000000E+00
(PID.TID 0000.0001) %MON trcstat_ptracer43_max        =   8.7785894917749596E-04
(PID.TID 0000.0001) %MON trcstat_ptracer43_min        =   3.9452493772007999E-37
(PID.TID 0000.0001) %MON trcstat_ptracer43_mean       =   2.6175379413903598E-05
(PID.TID 0000.0001) %MON trcstat_ptracer43_sd         =   1.3723205447388001E-04
(PID.TID 0000.0001) %MON trcstat_ptracer43_del2       =   0.0000000000000000E+00
(PID.TID 0000.0001) %MON trcstat_ptracer44_max        =   8.7785894917749596E-04
(PID.TID 0000.0001) %MON trcstat_ptracer44_min        =   3.9452493772007999E-37
(PID.TID 0000.0001) %MON trcstat_ptracer44_mean       =   2.6175379413903598E-05
(PID.TID 0000.0001) %MON trcstat_ptracer44_sd         =   1.3723205447388001E-04
(PID.TID 0000.0001) %MON trcstat_ptracer44_del2       =   0.0000000000000000E+00
(PID.TID 0000.0001) %MON trcstat_ptracer45_max        =   8.7785894917749596E-04
(PID.TID 0000.0001) %MON trcstat_ptracer45_min        =   3.9452493772007999E-37
(PID.TID 0000.0001) %MON trcstat_ptracer45_mean       =   2.6175379413903598E-05
(PID.TID 0000.0001) %MON trcstat_ptracer45_sd         =   1.3723205447388001E-04
(PID.TID 0000.0001) %MON trcstat_ptracer45_del2       =   0.0000000000000000E+00
(PID.TID 0000.0001) %MON trcstat_ptracer46_max        =   8.7785894917749596E-04
(PID.TID 0000.0001) %MON trcstat_ptracer46_min        =   3.9452493772007999E-37
(PID.TID 0000.0001) %MON trcstat_ptracer46_mean       =   2.6175379413903598E-05
(PID.TID 0000.0001) %MON trcstat_ptracer46_sd         =   1.3723205447388001E-04
(PID.TID 0000.0001) %MON trcstat_ptracer46_del2       =   0.0000000000000000E+00
(PID.TID 0000.0001) %MON trcstat_ptracer47_max        =   8.7784040716842003E-04
(PID.TID 0000.0001) %MON trcstat_ptracer47_min        =   1.1455106270730002E-34
(PID.TID 0000.0001) %MON trcstat_ptracer47_mean       =   2.6216130833555999E-05
(PID.TID 0000.0001) %MON trcstat_ptracer47_sd         =   1.3745898145428001E-04
(PID.TID 0000.0001) %MON trcstat_ptracer47_del2       =   0.0000000000000000E+00
(PID.TID 0000.0001) %MON trcstat_ptracer48_max        =   8.7785894917749596E-04
(PID.TID 0000.0001) %MON trcstat_ptracer48_min        =   3.9452493772007999E-37
(PID.TID 0000.0001) %MON trcstat_ptracer48_mean       =   2.6175379413907203E-05
(PID.TID 0000.0001) %MON trcstat_ptracer48_sd         =   1.3723205447390400E-04
(PID.TID 0000.0001) %MON trcstat_ptracer48_del2       =   0.0000000000000000E+00
(PID.TID 0000.0001) %MON trcstat_ptracer49_max        =   8.7784040716842003E-04
(PID.TID 0000.0001) %MON trcstat_ptracer49_min        =   1.1455106270730002E-34
(PID.TID 0000.0001) %MON trcstat_ptracer49_mean       =   2.6217191307027599E-05
(PID.TID 0000.0001) %MON trcstat_ptracer49_sd         =   1.3746530508314400E-04
(PID.TID 0000.0001) %MON trcstat_ptracer49_del2       =   0.0000000000000000E+00
(PID.TID 0000.0001) %MON trcstat_ptracer50_max        =   8.7785894917749596E-04
(PID.TID 0000.0001) %MON trcstat_ptracer50_min        =   3.9452493772007999E-37
(PID.TID 0000.0001) %MON trcstat_ptracer50_mean       =   2.6205562652503199E-05
(PID.TID 0000.0001) %MON trcstat_ptracer50_sd         =   1.3741292006329200E-04
(PID.TID 0000.0001) %MON trcstat_ptracer50_del2       =   0.0000000000000000E+00
(PID.TID 0000.0001) %MON trcstat_ptracer51_max        =   8.7784040716842003E-04
(PID.TID 0000.0001) %MON trcstat_ptracer51_min        =   1.1455106270730002E-34
(PID.TID 0000.0001) %MON trcstat_ptracer51_mean       =   2.6193191754379199E-05
(PID.TID 0000.0001) %MON trcstat_ptracer51_sd         =   1.3732141560622802E-04
(PID.TID 0000.0001) %MON trcstat_ptracer51_del2       =   0.0000000000000000E+00
(PID.TID 0000.0001) %MON trcstat_ptracer52_max        =   8.7785894917749596E-04
[...]
(PID.TID 0000.0001) %MON trcstat_ptracer49_del2       =   0.0000000000000000E+00
(PID.TID 0000.0001) %MON trcstat_ptracer50_max        =   8.6691179783755204E-04
(PID.TID 0000.0001) %MON trcstat_ptracer50_min        =   1.3739850072296399E-35
(PID.TID 0000.0001) %MON trcstat_ptracer50_mean       =   2.5970991515880000E-05
(PID.TID 0000.0001) %MON trcstat_ptracer50_sd         =   1.3625642496842402E-04
(PID.TID 0000.0001) %MON trcstat_ptracer50_del2       =   0.0000000000000000E+00
(PID.TID 0000.0001) %MON trcstat_ptracer51_max        =   8.6684004766150800E-04
(PID.TID 0000.0001) %MON trcstat_ptracer51_min        =   1.6992725818007997E-27
(PID.TID 0000.0001) %MON trcstat_ptracer51_mean       =   2.5920778865085602E-05
(PID.TID 0000.0001) %MON trcstat_ptracer51_sd         =   1.3588060034718002E-04
(PID.TID 0000.0001) %MON trcstat_ptracer51_del2       =   0.0000000000000000E+00
(PID.TID 0000.0001) %MON trcstat_ptracer52_max        =   8.6691204682285208E-04
(PID.TID 0000.0001) %MON trcstat_ptracer52_min        =   1.3739850072296399E-35
(PID.TID 0000.0001) %MON trcstat_ptracer52_mean       =   2.5992974307019200E-05
(PID.TID 0000.0001) %MON trcstat_ptracer52_sd         =   1.3638985627692000E-04
(PID.TID 0000.0001) %MON trcstat_ptracer52_del2       =   0.0000000000000000E+00
(PID.TID 0000.0001) %MON trcstat_ptracer53_max        =   8.6691171288649207E-04
(PID.TID 0000.0001) %MON trcstat_ptracer53_min        =   1.3739850072296399E-35
(PID.TID 0000.0001) %MON trcstat_ptracer53_mean       =   2.5849548560049601E-05
(PID.TID 0000.0001) %MON trcstat_ptracer53_sd         =   1.3552172203848000E-04
(PID.TID 0000.0001) %MON trcstat_ptracer53_del2       =   0.0000000000000000E+00
(PID.TID 0000.0001) %MON trcstat_ptracer54_max        =   8.6683865064328804E-04
(PID.TID 0000.0001) %MON trcstat_ptracer54_min        =   1.6992725818009199E-27
(PID.TID 0000.0001) %MON trcstat_ptracer54_mean       =   2.5849548567549600E-05
(PID.TID 0000.0001) %MON trcstat_ptracer54_sd         =   1.3545288047751600E-04
(PID.TID 0000.0001) %MON trcstat_ptracer54_del2       =   0.0000000000000000E+00
(PID.TID 0000.0001) %MON trcstat_ptracer55_max        =   8.6691171288649207E-04
(PID.TID 0000.0001) %MON trcstat_ptracer55_min        =   1.3739850072296399E-35
(PID.TID 0000.0001) %MON trcstat_ptracer55_mean       =   2.5849548560048398E-05
(PID.TID 0000.0001) %MON trcstat_ptracer55_sd         =   1.3552172203848000E-04
(PID.TID 0000.0001) %MON trcstat_ptracer55_del2       =   0.0000000000000000E+00
(PID.TID 0000.0001) %MON trcstat_ptracer56_max        =   8.6691171288649207E-04
(PID.TID 0000.0001) %MON trcstat_ptracer56_min        =   1.3739850072296399E-35
(PID.TID 0000.0001) %MON trcstat_ptracer56_mean       =   2.5849548560056801E-05
(PID.TID 0000.0001) %MON trcstat_ptracer56_sd         =   1.3552172203852800E-04
(PID.TID 0000.0001) %MON trcstat_ptracer56_del2       =   0.0000000000000000E+00
(PID.TID 0000.0001) %MON trcstat_ptracer57_max        =   8.6691171288649207E-04
(PID.TID 0000.0001) %MON trcstat_ptracer57_min        =   1.3739850072296399E-35
(PID.TID 0000.0001) %MON trcstat_ptracer57_mean       =   2.5849548560052000E-05
(PID.TID 0000.0001) %MON trcstat_ptracer57_sd         =   1.3552172203850398E-04
(PID.TID 0000.0001) %MON trcstat_ptracer57_del2       =   0.0000000000000000E+00
(PID.TID 0000.0001) %MON trcstat_ptracer58_max        =   8.6683865064328804E-04
(PID.TID 0000.0001) %MON trcstat_ptracer58_min        =   1.6992725818009199E-27
(PID.TID 0000.0001) %MON trcstat_ptracer58_mean       =   2.5849548567554398E-05
(PID.TID 0000.0001) %MON trcstat_ptracer58_sd         =   1.3545288047753999E-04
(PID.TID 0000.0001) %MON trcstat_ptracer58_del2       =   0.0000000000000000E+00
(PID.TID 0000.0001) %MON trcstat_ptracer59_max        =   8.6691171288649207E-04
(PID.TID 0000.0001) %MON trcstat_ptracer59_min        =   1.3739850072296399E-35
(PID.TID 0000.0001) %MON trcstat_ptracer59_mean       =   2.5849548560045999E-05
(PID.TID 0000.0001) %MON trcstat_ptracer59_sd         =   1.3552172203846799E-04
(PID.TID 0000.0001) %MON trcstat_ptracer59_del2       =   0.0000000000000000E+00
(PID.TID 0000.0001) %MON trcstat_ptracer60_max        =   8.6683865037496795E-04
(PID.TID 0000.0001) %MON trcstat_ptracer60_min        =   1.6992725818007997E-27
(PID.TID 0000.0001) %MON trcstat_ptracer60_mean       =   2.5849548560054399E-05
(PID.TID 0000.0001) %MON trcstat_ptracer60_sd         =   1.3545288043717200E-04
(PID.TID 0000.0001) %MON trcstat_ptracer60_del2       =   0.0000000000000000E+00
(PID.TID 0000.0001) %MON trcstat_ptracer61_max        =   8.6691171288649207E-04
(PID.TID 0000.0001) %MON trcstat_ptracer61_min        =   1.3739850072296399E-35
(PID.TID 0000.0001) %MON trcstat_ptracer61_mean       =   2.5849548560056801E-05
(PID.TID 0000.0001) %MON trcstat_ptracer61_sd         =   1.3552172203852800E-04
(PID.TID 0000.0001) %MON trcstat_ptracer61_del2       =   0.0000000000000000E+00
(PID.TID 0000.0001) %MON trcstat_ptracer62_max        =   8.6683865037496795E-04
(PID.TID 0000.0001) %MON trcstat_ptracer62_min        =   1.6992725818007997E-27
(PID.TID 0000.0001) %MON trcstat_ptracer62_mean       =   2.5849548560050800E-05
(PID.TID 0000.0001) %MON trcstat_ptracer62_sd         =   1.3545288043714801E-04
(PID.TID 0000.0001) %MON trcstat_ptracer62_del2       =   0.0000000000000000E+00
(PID.TID 0000.0001) %MON trcstat_ptracer63_max        =   8.6691175389274808E-04
(PID.TID 0000.0001) %MON trcstat_ptracer63_min        =   1.3739850072296399E-35
(PID.TID 0000.0001) %MON trcstat_ptracer63_mean       =   2.5911217562648401E-05
(PID.TID 0000.0001) %MON trcstat_ptracer63_sd         =   1.3589251130951998E-04
(PID.TID 0000.0001) %MON trcstat_ptracer63_del2       =   0.0000000000000000E+00
(PID.TID 0000.0001) %MON trcstat_ptracer64_max        =   8.6683986989336394E-04
(PID.TID 0000.0001) %MON trcstat_ptracer64_min        =   1.6992725818007997E-27
(PID.TID 0000.0001) %MON trcstat_ptracer64_mean       =   2.6008816641233998E-05
(PID.TID 0000.0001) %MON trcstat_ptracer64_sd         =   1.3641396794768400E-04
(PID.TID 0000.0001) %MON trcstat_ptracer64_del2       =   0.0000000000000000E+00
(PID.TID 0000.0001) %MON trcstat_ptracer65_max        =   8.6683865037496795E-04
(PID.TID 0000.0001) %MON trcstat_ptracer65_min        =   1.6992725818007997E-27
(PID.TID 0000.0001) %MON trcstat_ptracer65_mean       =   2.5849548560055601E-05
(PID.TID 0000.0001) %MON trcstat_ptracer65_sd         =   1.3545288043717200E-04
(PID.TID 0000.0001) %MON trcstat_ptracer65_del2       =   0.0000000000000000E+00
(PID.TID 0000.0001) %MON trcstat_ptracer66_max        =   8.6683865037496795E-04
(PID.TID 0000.0001) %MON trcstat_ptracer66_min        =   1.6992725818007997E-27
(PID.TID 0000.0001) %MON trcstat_ptracer66_mean       =   2.5849548560054399E-05
(PID.TID 0000.0001) %MON trcstat_ptracer66_sd         =   1.3545288043717200E-04
(PID.TID 0000.0001) %MON trcstat_ptracer66_del2       =   0.0000000000000000E+00
(PID.TID 0000.0001) %MON trcstat_ptracer67_max        =   8.6683865037496795E-04
(PID.TID 0000.0001) %MON trcstat_ptracer67_min        =   1.6992725818007997E-27
(PID.TID 0000.0001) %MON trcstat_ptracer67_mean       =   2.5849548560053199E-05
(PID.TID 0000.0001) %MON trcstat_ptracer67_sd         =   1.3545288043715999E-04
(PID.TID 0000.0001) %MON trcstat_ptracer67_del2       =   0.0000000000000000E+00
(PID.TID 0000.0001) %MON trcstat_ptracer68_max        =   8.6691184297486802E-04
(PID.TID 0000.0001) %MON trcstat_ptracer68_min        =   1.3739850072296399E-35
(PID.TID 0000.0001) %MON trcstat_ptracer68_mean       =   2.5922798443750800E-05
(PID.TID 0000.0001) %MON trcstat_ptracer68_sd         =   1.3596294276421202E-04
(PID.TID 0000.0001) %MON trcstat_ptracer68_del2       =   0.0000000000000000E+00
(PID.TID 0000.0001) %MON trcstat_ptracer69_max        =   8.6691171288649207E-04
(PID.TID 0000.0001) %MON trcstat_ptracer69_min        =   1.3739850072296399E-35
(PID.TID 0000.0001) %MON trcstat_ptracer69_mean       =   2.5849548560058000E-05
(PID.TID 0000.0001) %MON trcstat_ptracer69_sd         =   1.3552172203854001E-04
(PID.TID 0000.0001) %MON trcstat_ptracer69_del2       =   0.0000000000000000E+00
(PID.TID 0000.0001) %MON trcstat_ptracer70_max        =   8.6683865064328804E-04
(PID.TID 0000.0001) %MON trcstat_ptracer70_min        =   1.6992725818009199E-27
(PID.TID 0000.0001) %MON trcstat_ptracer70_mean       =   2.5849548567554398E-05
(PID.TID 0000.0001) %MON trcstat_ptracer70_sd         =   1.3545288047753999E-04
(PID.TID 0000.0001) %MON trcstat_ptracer70_del2       =   0.0000000000000000E+00
(PID.TID 0000.0001) %MON trcstat_ptracer71_max        =   8.6683865064328804E-04
(PID.TID 0000.0001) %MON trcstat_ptracer71_min        =   1.6992725818009199E-27
(PID.TID 0000.0001) %MON trcstat_ptracer71_mean       =   2.5849548567551999E-05
(PID.TID 0000.0001) %MON trcstat_ptracer71_sd         =   1.3545288047752801E-04
(PID.TID 0000.0001) %MON trcstat_ptracer71_del2       =   0.0000000000000000E+00
(PID.TID 0000.0001) %MON trcstat_ptracer72_max        =   8.6683865037496795E-04
(PID.TID 0000.0001) %MON trcstat_ptracer72_min        =   1.6992725818007997E-27
(PID.TID 0000.0001) %MON trcstat_ptracer72_mean       =   2.5849548560050800E-05
(PID.TID 0000.0001) %MON trcstat_ptracer72_sd         =   1.3545288043714801E-04
(PID.TID 0000.0001) %MON trcstat_ptracer72_del2       =   0.0000000000000000E+00
(PID.TID 0000.0001) %MON trcstat_ptracer73_max        =   8.6684000826979198E-04
(PID.TID 0000.0001) %MON trcstat_ptracer73_min        =   1.6992725818007997E-27
(PID.TID 0000.0001) %MON trcstat_ptracer73_mean       =   2.6011572774776402E-05
(PID.TID 0000.0001) %MON trcstat_ptracer73_sd         =   1.3643077844377200E-04
(PID.TID 0000.0001) %MON trcstat_ptracer73_del2       =   0.0000000000000000E+00
(PID.TID 0000.0001) %MON trcstat_ptracer74_max        =   8.6683865064328804E-04
(PID.TID 0000.0001) %MON trcstat_ptracer74_min        =   1.6992725818009199E-27
(PID.TID 0000.0001) %MON trcstat_ptracer74_mean       =   2.5849548567554398E-05
(PID.TID 0000.0001) %MON trcstat_ptracer74_sd         =   1.3545288047753999E-04
(PID.TID 0000.0001) %MON trcstat_ptracer74_del2       =   0.0000000000000000E+00
(PID.TID 0000.0001) %MON trcstat_ptracer75_max        =   8.6684024903122795E-04
(PID.TID 0000.0001) %MON trcstat_ptracer75_min        =   1.6992725818007997E-27
(PID.TID 0000.0001) %MON trcstat_ptracer75_mean       =   2.6026100540764798E-05
(PID.TID 0000.0001) %MON trcstat_ptracer75_sd         =   1.3651967204216401E-04
(PID.TID 0000.0001) %MON trcstat_ptracer75_del2       =   0.0000000000000000E+00
(PID.TID 0000.0001) %MON trcstat_ptracer76_max        =   8.6684022673814401E-04
(PID.TID 0000.0001) %MON trcstat_ptracer76_min        =   1.6992725818009199E-27
(PID.TID 0000.0001) %MON trcstat_ptracer76_mean       =   2.5892921639599198E-05
(PID.TID 0000.0001) %MON trcstat_ptracer76_sd         =   1.3571339649045601E-04
(PID.TID 0000.0001) %MON trcstat_ptracer76_del2       =   0.0000000000000000E+00
(PID.TID 0000.0001) %MON trcstat_ptracer77_max        =   8.6683865037496795E-04
(PID.TID 0000.0001) %MON trcstat_ptracer77_min        =   1.6992725818007997E-27
(PID.TID 0000.0001) %MON trcstat_ptracer77_mean       =   2.5849548560058000E-05
(PID.TID 0000.0001) %MON trcstat_ptracer77_sd         =   1.3545288043718398E-04
(PID.TID 0000.0001) %MON trcstat_ptracer77_del2       =   0.0000000000000000E+00
(PID.TID 0000.0001) %MON trcstat_ptracer78_max        =   8.6684003694422406E-04
(PID.TID 0000.0001) %MON trcstat_ptracer78_min        =   1.6992725818007997E-27
(PID.TID 0000.0001) %MON trcstat_ptracer78_mean       =   2.5864979512584000E-05
(PID.TID 0000.0001) %MON trcstat_ptracer78_sd         =   1.3554585283360800E-04
(PID.TID 0000.0001) %MON trcstat_ptracer78_del2       =   0.0000000000000000E+00
(PID.TID 0000.0001) %MON trcstat_ptracer79_max        =   8.6683865037496795E-04
(PID.TID 0000.0001) %MON trcstat_ptracer79_min        =   1.6992725818007997E-27
(PID.TID 0000.0001) %MON trcstat_ptracer79_mean       =   2.5849548560054399E-05
(PID.TID 0000.0001) %MON trcstat_ptracer79_sd         =   1.3545288043717200E-04
(PID.TID 0000.0001) %MON trcstat_ptracer79_del2       =   0.0000000000000000E+00
(PID.TID 0000.0001) %MON trcstat_ptracer80_max        =   8.6683865037496795E-04
(PID.TID 0000.0001) %MON trcstat_ptracer80_min        =   1.6992725818007997E-27
(PID.TID 0000.0001) %MON trcstat_ptracer80_mean       =   2.5849548560050800E-05
(PID.TID 0000.0001) %MON trcstat_ptracer80_sd         =   1.3545288043714801E-04
(PID.TID 0000.0001) %MON trcstat_ptracer80_del2       =   0.0000000000000000E+00
(PID.TID 0000.0001) %MON trcstat_ptracer81_max        =   8.6684033439897597E-04
(PID.TID 0000.0001) %MON trcstat_ptracer81_min        =   1.6992725818009199E-27
(PID.TID 0000.0001) %MON trcstat_ptracer81_mean       =   2.5943701750351200E-05
(PID.TID 0000.0001) %MON trcstat_ptracer81_sd         =   1.3601897558696398E-04
(PID.TID 0000.0001) %MON trcstat_ptracer81_del2       =   0.0000000000000000E+00
(PID.TID 0000.0001) %MON trcstat_ptracer82_max        =   8.6691171288649207E-04
(PID.TID 0000.0001) %MON trcstat_ptracer82_min        =   1.3739850072296399E-35
(PID.TID 0000.0001) %MON trcstat_ptracer82_mean       =   2.5849548560045999E-05
(PID.TID 0000.0001) %MON trcstat_ptracer82_sd         =   1.3552172203846799E-04
(PID.TID 0000.0001) %MON trcstat_ptracer82_del2       =   0.0000000000000000E+00
(PID.TID 0000.0001) %MON trcstat_ptracer83_max        =   8.6683865064328804E-04
(PID.TID 0000.0001) %MON trcstat_ptracer83_min        =   1.6992725818009199E-27
(PID.TID 0000.0001) %MON trcstat_ptracer83_mean       =   2.5849548567549600E-05
(PID.TID 0000.0001) %MON trcstat_ptracer83_sd         =   1.3545288047751600E-04
(PID.TID 0000.0001) %MON trcstat_ptracer83_del2       =   0.0000000000000000E+00
(PID.TID 0000.0001) %MON trcstat_ptracer84_max        =   8.6691171288649207E-04
(PID.TID 0000.0001) %MON trcstat_ptracer84_min        =   1.3739850072296399E-35
(PID.TID 0000.0001) %MON trcstat_ptracer84_mean       =   2.5849548560042398E-05
(PID.TID 0000.0001) %MON trcstat_ptracer84_sd         =   1.3552172203844400E-04
(PID.TID 0000.0001) %MON trcstat_ptracer84_del2       =   0.0000000000000000E+00
(PID.TID 0000.0001) %MON trcstat_ptracer85_max        =   8.6683865037496795E-04
(PID.TID 0000.0001) %MON trcstat_ptracer85_min        =   1.6992725818007997E-27
(PID.TID 0000.0001) %MON trcstat_ptracer85_mean       =   2.5849548560053199E-05
(PID.TID 0000.0001) %MON trcstat_ptracer85_sd         =   1.3545288043715999E-04
(PID.TID 0000.0001) %MON trcstat_ptracer85_del2       =   0.0000000000000000E+00
(PID.TID 0000.0001) %MON trcstat_ptracer86_max        =   8.6684025705153600E-04
(PID.TID 0000.0001) %MON trcstat_ptracer86_min        =   1.6992725818009199E-27
(PID.TID 0000.0001) %MON trcstat_ptracer86_mean       =   2.5874846652152402E-05
(PID.TID 0000.0001) %MON trcstat_ptracer86_sd         =   1.3560510288416401E-04
(PID.TID 0000.0001) %MON trcstat_ptracer86_del2       =   0.0000000000000000E+00
(PID.TID 0000.0001) %MON trcstat_ptracer87_max        =   8.6691186855435598E-04
(PID.TID 0000.0001) %MON trcstat_ptracer87_min        =   1.3739850072296399E-35
(PID.TID 0000.0001) %MON trcstat_ptracer87_mean       =   2.5977577134168000E-05
(PID.TID 0000.0001) %MON trcstat_ptracer87_sd         =   1.3629601870712398E-04
(PID.TID 0000.0001) %MON trcstat_ptracer87_del2       =   0.0000000000000000E+00
(PID.TID 0000.0001) %MON trcstat_ptracer88_max        =   8.6691171288649207E-04
(PID.TID 0000.0001) %MON trcstat_ptracer88_min        =   1.3739850072296399E-35
(PID.TID 0000.0001) %MON trcstat_ptracer88_mean       =   2.5849548560045999E-05
(PID.TID 0000.0001) %MON trcstat_ptracer88_sd         =   1.3552172203846799E-04
(PID.TID 0000.0001) %MON trcstat_ptracer88_del2       =   0.0000000000000000E+00
(PID.TID 0000.0001) %MON trcstat_ptracer89_max        =   8.6691171288649207E-04
(PID.TID 0000.0001) %MON trcstat_ptracer89_min        =   1.3739850072296399E-35
(PID.TID 0000.0001) %MON trcstat_ptracer89_mean       =   2.5849548560043601E-05
(PID.TID 0000.0001) %MON trcstat_ptracer89_sd         =   1.3552172203844400E-04
(PID.TID 0000.0001) %MON trcstat_ptracer89_del2       =   0.0000000000000000E+00
(PID.TID 0000.0001) %MON trcstat_ptracer90_max        =   8.6683865064328804E-04
(PID.TID 0000.0001) %MON trcstat_ptracer90_min        =   1.6992725818009199E-27
(PID.TID 0000.0001) %MON trcstat_ptracer90_mean       =   2.5849548567554398E-05
(PID.TID 0000.0001) %MON trcstat_ptracer90_sd         =   1.3545288047753999E-04
(PID.TID 0000.0001) %MON trcstat_ptracer90_del2       =   0.0000000000000000E+00
(PID.TID 0000.0001) %MON trcstat_ptracer91_max        =   8.6691171288649207E-04
(PID.TID 0000.0001) %MON trcstat_ptracer91_min        =   1.3739850072296399E-35
(PID.TID 0000.0001) %MON trcstat_ptracer91_mean       =   2.5849548560044800E-05
(PID.TID 0000.0001) %MON trcstat_ptracer91_sd         =   1.3552172203845598E-04
(PID.TID 0000.0001) %MON trcstat_ptracer91_del2       =   0.0000000000000000E+00
(PID.TID 0000.0001) %MON trcstat_ptracer92_max        =   8.6684005302339602E-04
(PID.TID 0000.0001) %MON trcstat_ptracer92_min        =   1.6992725818007997E-27
(PID.TID 0000.0001) %MON trcstat_ptracer92_mean       =   2.5865034426886801E-05
(PID.TID 0000.0001) %MON trcstat_ptracer92_sd         =   1.3554622558170000E-04
(PID.TID 0000.0001) %MON trcstat_ptracer92_del2       =   0.0000000000000000E+00
(PID.TID 0000.0001) %MON trcstat_ptracer93_max        =   8.6683865064328804E-04
(PID.TID 0000.0001) %MON trcstat_ptracer93_min        =   1.6992725818009199E-27
(PID.TID 0000.0001) %MON trcstat_ptracer93_mean       =   2.5849548567549600E-05
(PID.TID 0000.0001) %MON trcstat_ptracer93_sd         =   1.3545288047751600E-04
(PID.TID 0000.0001) %MON trcstat_ptracer93_del2       =   0.0000000000000000E+00
(PID.TID 0000.0001) %MON trcstat_ptracer94_max        =   8.6683995423228000E-04
(PID.TID 0000.0001) %MON trcstat_ptracer94_min        =   1.6992725818009199E-27
(PID.TID 0000.0001) %MON trcstat_ptracer94_mean       =   2.6003701669993201E-05
(PID.TID 0000.0001) %MON trcstat_ptracer94_sd         =   1.3638266976162002E-04
(PID.TID 0000.0001) %MON trcstat_ptracer94_del2       =   0.0000000000000000E+00
(PID.TID 0000.0001) %MON trcstat_ptracer95_max        =   8.6683865037496795E-04
(PID.TID 0000.0001) %MON trcstat_ptracer95_min        =   1.6992725818007997E-27
(PID.TID 0000.0001) %MON trcstat_ptracer95_mean       =   2.5849548560050800E-05
(PID.TID 0000.0001) %MON trcstat_ptracer95_sd         =   1.3545288043714801E-04
(PID.TID 0000.0001) %MON trcstat_ptracer95_del2       =   0.0000000000000000E+00
(PID.TID 0000.0001) %MON trcstat_ptracer96_max        =   8.6691176205460794E-04
(PID.TID 0000.0001) %MON trcstat_ptracer96_min        =   1.3739850072296399E-35
(PID.TID 0000.0001) %MON trcstat_ptracer96_mean       =   2.5928221158448800E-05
(PID.TID 0000.0001) %MON trcstat_ptracer96_sd         =   1.3599569726599199E-04
(PID.TID 0000.0001) %MON trcstat_ptracer96_del2       =   0.0000000000000000E+00
(PID.TID 0000.0001) %MON trcstat_ptracer97_max        =   1.2365301018076801E-07
(PID.TID 0000.0001) %MON trcstat_ptracer97_min        =   9.6539308657082391E-34
(PID.TID 0000.0001) %MON trcstat_ptracer97_mean       =   1.6351650417171599E-08
(PID.TID 0000.0001) %MON trcstat_ptracer97_sd         =   2.9908440421882799E-08
(PID.TID 0000.0001) %MON trcstat_ptracer97_del2       =   0.0000000000000000E+00
(PID.TID 0000.0001) %MON trcstat_ptracer98_max        =   1.2365576427900000E-07
(PID.TID 0000.0001) %MON trcstat_ptracer98_min        =   9.6539308657108802E-34
(PID.TID 0000.0001) %MON trcstat_ptracer98_mean       =   1.6351728639983998E-08
(PID.TID 0000.0001) %MON trcstat_ptracer98_sd         =   2.9908702671308403E-08
(PID.TID 0000.0001) %MON trcstat_ptracer98_del2       =   0.0000000000000000E+00
