(PID.TID 0000.0001) 
(PID.TID 0000.0001) // ======================================================
(PID.TID 0000.0001) //                      MITgcm UV
(PID.TID 0000.0001) //                      =========
(PID.TID 0000.0001) // ======================================================
(PID.TID 0000.0001) // execution environment starting up...
(PID.TID 0000.0001) 
(PID.TID 0000.0001) // Build user:        jahn
(PID.TID 0000.0001) // Build host:        node199
(PID.TID 0000.0001) // Build date:        Tue May  6 14:33:40 EDT 2014
(PID.TID 0000.0001) 
(PID.TID 0000.0001) // =======================================================
(PID.TID 0000.0001) // Execution Environment parameter file "eedata"
(PID.TID 0000.0001) // =======================================================
(PID.TID 0000.0001) ># Example "eedata" file
(PID.TID 0000.0001) ># Lines beginning "#" are comments
(PID.TID 0000.0001) ># nTx - No. threads per process in X
(PID.TID 0000.0001) ># nTy - No. threads per process in Y
(PID.TID 0000.0001) > &EEPARMS
(PID.TID 0000.0001) > nTx=1,
(PID.TID 0000.0001) > nTy=1,
(PID.TID 0000.0001) > printMapIncludesZeros = .TRUE.
(PID.TID 0000.0001) > /
(PID.TID 0000.0001) ># Note: Some systems use & as the
(PID.TID 0000.0001) ># namelist terminator. Other systems
(PID.TID 0000.0001) ># use a / character (as shown here).
(PID.TID 0000.0001) 
(PID.TID 0000.0001) // =======================================================
(PID.TID 0000.0001) // Computational Grid Specification ( see files "SIZE.h" )
(PID.TID 0000.0001) //                                  ( and "eedata"       )
(PID.TID 0000.0001) // =======================================================
(PID.TID 0000.0001)      nPx =    1 ; /* No. processes in X */
(PID.TID 0000.0001)      nPy =    1 ; /* No. processes in Y */
(PID.TID 0000.0001)      nSx =    2 ; /* No. tiles in X per process */
(PID.TID 0000.0001)      nSy =    2 ; /* No. tiles in Y per process */
(PID.TID 0000.0001)      sNx =   38 ; /* Tile size in X */
(PID.TID 0000.0001)      sNy =   36 ; /* Tile size in Y */
(PID.TID 0000.0001)      OLx =    4 ; /* Tile overlap distance in X */
(PID.TID 0000.0001)      OLy =    4 ; /* Tile overlap distance in Y */
(PID.TID 0000.0001)      nTx =    1 ; /* No. threads in X per process */
(PID.TID 0000.0001)      nTy =    1 ; /* No. threads in Y per process */
(PID.TID 0000.0001)       Nr =   24 ; /* No. levels in the vertical   */
(PID.TID 0000.0001)       Nx =   76 ; /* Total domain size in X ( = nPx*nSx*sNx ) */
(PID.TID 0000.0001)       Ny =   72 ; /* Total domain size in Y ( = nPy*nSy*sNy ) */
(PID.TID 0000.0001)   nTiles =    4 ; /* Total no. tiles per process ( = nSx*nSy ) */
(PID.TID 0000.0001)   nProcs =    1 ; /* Total no. processes ( = nPx*nPy ) */
(PID.TID 0000.0001) nThreads =    1 ; /* Total no. threads per process ( = nTx*nTy ) */
(PID.TID 0000.0001) usingMPI =    F ; /* Flag used to control whether MPI is in use */
(PID.TID 0000.0001)                   /*  note: To execute a program with MPI calls */
(PID.TID 0000.0001)                   /*  it must be launched appropriately e.g     */
(PID.TID 0000.0001)                   /*  "mpirun -np 64 ......"                    */
(PID.TID 0000.0001) useCoupler=    F ;/* Flag used to control communications with   */
(PID.TID 0000.0001)                   /*  other model components, through a coupler */
(PID.TID 0000.0001) debugMode =    F ; /* print debug msg. (sequence of S/R calls)  */
(PID.TID 0000.0001) printMapIncludesZeros=    T ; /* print zeros in Std.Output maps */
(PID.TID 0000.0001) maxLengthPrt1D=   65 /* maxLength of 1D array printed to StdOut */
(PID.TID 0000.0001) 
(PID.TID 0000.0001) // ======================================================
(PID.TID 0000.0001) // Mapping of tiles to threads
(PID.TID 0000.0001) // ======================================================
(PID.TID 0000.0001) // -o- Thread   1, tiles (   1:   2,   1:   2)
(PID.TID 0000.0001) 
(PID.TID 0000.0001) // ======================================================
(PID.TID 0000.0001) // Tile <-> Tile connectvity table
(PID.TID 0000.0001) // ======================================================
(PID.TID 0000.0001) // Tile number: 000001 (process no. = 000000)
(PID.TID 0000.0001) //        WEST: Tile = 000002, Process = 000000, Comm = put
(PID.TID 0000.0001) //                bi = 000002, bj = 000001
(PID.TID 0000.0001) //        EAST: Tile = 000002, Process = 000000, Comm = put
(PID.TID 0000.0001) //                bi = 000002, bj = 000001
(PID.TID 0000.0001) //       SOUTH: Tile = 000003, Process = 000000, Comm = put
(PID.TID 0000.0001) //                bi = 000001, bj = 000002
(PID.TID 0000.0001) //       NORTH: Tile = 000003, Process = 000000, Comm = put
(PID.TID 0000.0001) //                bi = 000001, bj = 000002
(PID.TID 0000.0001) // Tile number: 000002 (process no. = 000000)
(PID.TID 0000.0001) //        WEST: Tile = 000001, Process = 000000, Comm = put
(PID.TID 0000.0001) //                bi = 000001, bj = 000001
(PID.TID 0000.0001) //        EAST: Tile = 000001, Process = 000000, Comm = put
(PID.TID 0000.0001) //                bi = 000001, bj = 000001
(PID.TID 0000.0001) //       SOUTH: Tile = 000004, Process = 000000, Comm = put
(PID.TID 0000.0001) //                bi = 000002, bj = 000002
(PID.TID 0000.0001) //       NORTH: Tile = 000004, Process = 000000, Comm = put
(PID.TID 0000.0001) //                bi = 000002, bj = 000002
(PID.TID 0000.0001) // Tile number: 000003 (process no. = 000000)
(PID.TID 0000.0001) //        WEST: Tile = 000004, Process = 000000, Comm = put
(PID.TID 0000.0001) //                bi = 000002, bj = 000002
(PID.TID 0000.0001) //        EAST: Tile = 000004, Process = 000000, Comm = put
(PID.TID 0000.0001) //                bi = 000002, bj = 000002
(PID.TID 0000.0001) //       SOUTH: Tile = 000001, Process = 000000, Comm = put
(PID.TID 0000.0001) //                bi = 000001, bj = 000001
(PID.TID 0000.0001) //       NORTH: Tile = 000001, Process = 000000, Comm = put
(PID.TID 0000.0001) //                bi = 000001, bj = 000001
(PID.TID 0000.0001) // Tile number: 000004 (process no. = 000000)
(PID.TID 0000.0001) //        WEST: Tile = 000003, Process = 000000, Comm = put
(PID.TID 0000.0001) //                bi = 000001, bj = 000002
(PID.TID 0000.0001) //        EAST: Tile = 000003, Process = 000000, Comm = put
(PID.TID 0000.0001) //                bi = 000001, bj = 000002
(PID.TID 0000.0001) //       SOUTH: Tile = 000002, Process = 000000, Comm = put
(PID.TID 0000.0001) //                bi = 000002, bj = 000001
(PID.TID 0000.0001) //       NORTH: Tile = 000002, Process = 000000, Comm = put
(PID.TID 0000.0001) //                bi = 000002, bj = 000001
(PID.TID 0000.0001) 
(PID.TID 0000.0001)  INI_PARMS: opening model parameter file "data"
(PID.TID 0000.0001)  OPEN_COPY_DATA_FILE: opening file data
(PID.TID 0000.0001) // =======================================================
(PID.TID 0000.0001) // Parameter file "data"
(PID.TID 0000.0001) // =======================================================
(PID.TID 0000.0001) ># ====================
(PID.TID 0000.0001) ># | Model parameters |
(PID.TID 0000.0001) ># ====================
(PID.TID 0000.0001) >#
(PID.TID 0000.0001) ># Continuous equation parameters
(PID.TID 0000.0001) > &PARM01
(PID.TID 0000.0001) > tRef               = 3*23.,3*22.,21.,2*20.,19.,2*18.,17.,2*16.,15.,14.,13.,
(PID.TID 0000.0001) >                      12.,11.,2*9.,8.,7.
(PID.TID 0000.0001) > sRef               = 24*34.5,
(PID.TID 0000.0001) > viscAr= 6.0826e-04,
(PID.TID 0000.0001) > no_slip_sides=.FALSE.,
(PID.TID 0000.0001) > no_slip_bottom=.TRUE.,
(PID.TID 0000.0001) > diffKrT=1.e-6,
(PID.TID 0000.0001) > diffKrS=1.e-6,
(PID.TID 0000.0001) > rhonil=1027.5,
(PID.TID 0000.0001) > rhoConstFresh=999.8,
(PID.TID 0000.0001) > eosType='JMD95Z',
(PID.TID 0000.0001) > hFacMinDr=50.,
(PID.TID 0000.0001) > hFacMin=0.3,
(PID.TID 0000.0001) > hFacInf=0.1,
(PID.TID 0000.0001) > hFacSup=5.,
(PID.TID 0000.0001) ># select_rStar=2,
(PID.TID 0000.0001) ># nonlinFreeSurf=4,
(PID.TID 0000.0001) > implicitDiffusion=.TRUE.,
(PID.TID 0000.0001) > implicitViscosity=.TRUE.,
(PID.TID 0000.0001) > viscC4Leith=1.5,
(PID.TID 0000.0001) > viscC4Leithd=1.5,
(PID.TID 0000.0001) > viscA4GridMax=0.5,
(PID.TID 0000.0001) > useAreaViscLength=.TRUE.,
(PID.TID 0000.0001) > sideDragFactor=0.,
(PID.TID 0000.0001) > highOrderVorticity  = .TRUE.,
(PID.TID 0000.0001) > bottomDragQuadratic = 0.002,
(PID.TID 0000.0001) > tempAdvScheme=7,
(PID.TID 0000.0001) > saltAdvScheme=7,
(PID.TID 0000.0001) > StaggerTimeStep=.TRUE.,
(PID.TID 0000.0001) > multiDimAdvection=.TRUE.,
(PID.TID 0000.0001) > vectorInvariantMomentum=.TRUE.,
(PID.TID 0000.0001) > implicitFreeSurface=.TRUE.,
(PID.TID 0000.0001) > exactConserv=.TRUE.,
(PID.TID 0000.0001) >#debuglevel=-1,
(PID.TID 0000.0001) > convertFW2Salt=-1
(PID.TID 0000.0001) ># useRealFreshWaterFlux=.TRUE.,
(PID.TID 0000.0001) > useSingleCPUio=.TRUE.,
(PID.TID 0000.0001) > globalFiles=.TRUE.,
(PID.TID 0000.0001) > writeBinaryPrec=64,
(PID.TID 0000.0001) > /
(PID.TID 0000.0001) >
(PID.TID 0000.0001) ># Elliptic solver parameters
(PID.TID 0000.0001) > &PARM02
(PID.TID 0000.0001) > cg2dMaxIters=100,
(PID.TID 0000.0001) > cg2dTargetResidual=1.E-5,
(PID.TID 0000.0001) > /
(PID.TID 0000.0001) >
(PID.TID 0000.0001) ># Time stepping parameters
(PID.TID 0000.0001) > &PARM03
(PID.TID 0000.0001) ># 19930701
(PID.TID 0000.0001) >#niter0=0000039384,
(PID.TID 0000.0001) >#nTimeSteps=73,
(PID.TID 0000.0001) >#nTimeSteps=288,
(PID.TID 0000.0001) ># 19990301
(PID.TID 0000.0001) >#starttime=226022400.,
(PID.TID 0000.0001) >#endtime=226065600.,
(PID.TID 0000.0001) ># 19990301 1200
(PID.TID 0000.0001) > starttime=226065600.,
(PID.TID 0000.0001) > nTimeSteps=4,
(PID.TID 0000.0001) ># 19990301 1200
(PID.TID 0000.0001) >#starttime=36720000.,
(PID.TID 0000.0001) >#starttime=63158400.,
(PID.TID 0000.0001) >#starttime=94694400.,
(PID.TID 0000.0001) >#starttime=126230400.,
(PID.TID 0000.0001) >#starttime=157852800.,
(PID.TID 0000.0001) >#starttime=189388800.,
(PID.TID 0000.0001) >#starttime=220924800.,
(PID.TID 0000.0001) >#starttime=252460800.,
(PID.TID 0000.0001) >#starttime=284083200.,
(PID.TID 0000.0001) >#starttime=315619200.,
(PID.TID 0000.0001) ># 19930201
(PID.TID 0000.0001) >#endtime=34300800.,
(PID.TID 0000.0001) ># 19930301
(PID.TID 0000.0001) >#endtime=36720000.,
(PID.TID 0000.0001) ># 19930401
(PID.TID 0000.0001) >#endtime=39398400.,
(PID.TID 0000.0001) ># 19930501
(PID.TID 0000.0001) >#endtime=41990400.,
(PID.TID 0000.0001) ># 19930601
(PID.TID 0000.0001) >#endtime=44668800.,
(PID.TID 0000.0001) ># 19930701
(PID.TID 0000.0001) >#endtime=47260800.,
(PID.TID 0000.0001) ># 19930801
(PID.TID 0000.0001) >#endtime=49939200.,
(PID.TID 0000.0001) ># 19940101
(PID.TID 0000.0001) >#endtime=63158400.,
(PID.TID 0000.0001) ># 19950101
(PID.TID 0000.0001) >#endtime=94694400.,
(PID.TID 0000.0001) ># 19960101
(PID.TID 0000.0001) >#endtime=126230400.,
(PID.TID 0000.0001) ># 19970101
(PID.TID 0000.0001) >#endtime=157852800.,
(PID.TID 0000.0001) ># 19980101
(PID.TID 0000.0001) >#endtime=189388800.,
(PID.TID 0000.0001) ># 19990101
(PID.TID 0000.0001) >#endtime=220924800.,
(PID.TID 0000.0001) ># 19990301
(PID.TID 0000.0001) >#endtime=226022400.,
(PID.TID 0000.0001) ># 19990301 1200
(PID.TID 0000.0001) >#endtime=226065600.,
(PID.TID 0000.0001) ># 20000101
(PID.TID 0000.0001) >#endtime=252460800.,
(PID.TID 0000.0001) ># 20010101
(PID.TID 0000.0001) >#endtime=284083200.,
(PID.TID 0000.0001) ># 20020101
(PID.TID 0000.0001) >#endtime=315619200.,
(PID.TID 0000.0001) ># 20020701
(PID.TID 0000.0001) >#endtime=331257600.,
(PID.TID 0000.0001) >#endtime=347155200.,
(PID.TID 0000.0001) > abEps=0.1,
(PID.TID 0000.0001) > deltaT=1200,
(PID.TID 0000.0001) > cAdjFreq=0.,
(PID.TID 0000.0001) > pickupStrictlyMatch=.FALSE.,
(PID.TID 0000.0001) >#pChkptFreq=31536000.,
(PID.TID 0000.0001) > pChkptFreq=2678400.,
(PID.TID 0000.0001) > chkptFreq=2592000.,
(PID.TID 0000.0001) >#now in data.exf:
(PID.TID 0000.0001) >#tauSaltClimRelax = 8722203.,
(PID.TID 0000.0001) > monitorFreq=1200.,
(PID.TID 0000.0001) >#diagFreq=1200.,
(PID.TID 0000.0001) > forcing_In_AB = .FALSE.,
(PID.TID 0000.0001) > dumpFreq= 1200.,
(PID.TID 0000.0001) > dumpInitAndLast=.TRUE.,
(PID.TID 0000.0001) > /
(PID.TID 0000.0001) >
(PID.TID 0000.0001) ># Gridding parameters
(PID.TID 0000.0001) > &PARM04
(PID.TID 0000.0001) > usingCartesianGrid=.FALSE.,
(PID.TID 0000.0001) > usingSphericalPolarGrid=.FALSE.,
(PID.TID 0000.0001) > usingCurvilinearGrid=.TRUE.,
(PID.TID 0000.0001) > delR   = 10.00, 10.00, 10.00, 10.00, 10.00, 10.00, 10.00, 10.01,
(PID.TID 0000.0001) > 10.03, 10.11, 10.32, 10.80, 11.76, 13.42, 16.04 , 19.82, 24.85,
(PID.TID 0000.0001) > 31.10, 38.42, 46.50, 55.00, 63.50, 71.58, 78.90
(PID.TID 0000.0001) > /
(PID.TID 0000.0001) >
(PID.TID 0000.0001) ># Input datasets
(PID.TID 0000.0001) > &PARM05
(PID.TID 0000.0001) > bathyFile      ='ETOPO2_76x72_baltic_corr',
(PID.TID 0000.0001) > hydrogThetaFile='',
(PID.TID 0000.0001) > hydrogSaltFile ='',
(PID.TID 0000.0001) > /
(PID.TID 0000.0001) 
(PID.TID 0000.0001)  INI_PARMS ; starts to read PARM01
(PID.TID 0000.0001)  INI_PARMS ; read PARM01 : OK
(PID.TID 0000.0001)  INI_PARMS ; starts to read PARM02
(PID.TID 0000.0001)  INI_PARMS ; read PARM02 : OK
(PID.TID 0000.0001)  INI_PARMS ; starts to read PARM03
(PID.TID 0000.0001)  INI_PARMS ; read PARM03 : OK
(PID.TID 0000.0001)  INI_PARMS ; starts to read PARM04
(PID.TID 0000.0001)  INI_PARMS ; read PARM04 : OK
(PID.TID 0000.0001)  INI_PARMS ; starts to read PARM05
(PID.TID 0000.0001)  INI_PARMS ; read PARM05 : OK
(PID.TID 0000.0001)  INI_PARMS: finished reading file "data"
(PID.TID 0000.0001)  PACKAGES_BOOT: opening data.pkg
(PID.TID 0000.0001)  OPEN_COPY_DATA_FILE: opening file data.pkg
(PID.TID 0000.0001) // =======================================================
(PID.TID 0000.0001) // Parameter file "data.pkg"
(PID.TID 0000.0001) // =======================================================
(PID.TID 0000.0001) ># Packages
(PID.TID 0000.0001) > &PACKAGES
(PID.TID 0000.0001) > useEXF         = .TRUE.,
(PID.TID 0000.0001) > useSEAICE      = .TRUE.,
(PID.TID 0000.0001) > useKPP         = .TRUE.,
(PID.TID 0000.0001) > useDiagnostics = .TRUE.,
(PID.TID 0000.0001) > useOBCS        = .TRUE.,
(PID.TID 0000.0001) > usePTRACERS    = .TRUE.,
(PID.TID 0000.0001) > useGCHEM       = .TRUE.,
(PID.TID 0000.0001) > useMNC         = .TRUE.,
(PID.TID 0000.0001) > /
(PID.TID 0000.0001) 
(PID.TID 0000.0001)  PACKAGES_BOOT: finished reading data.pkg
(PID.TID 0000.0001)  PACKAGES_BOOT: On/Off package Summary
 --------  pkgs with a standard "usePKG" On/Off switch in "data.pkg":  --------
 pkg/obcs                 compiled   and   used ( useOBCS                  = T )
 pkg/kpp                  compiled   and   used ( useKPP                   = T )
 pkg/cal                  compiled   and   used ( useCAL                   = T )
 pkg/exf                  compiled   and   used ( useEXF                   = T )
 pkg/ptracers             compiled   and   used ( usePTRACERS              = T )
 pkg/gchem                compiled   and   used ( useGCHEM                 = T )
 pkg/seaice               compiled   and   used ( useSEAICE                = T )
 pkg/diagnostics          compiled   and   used ( useDiagnostics           = T )
 pkg/mnc                  compiled   and   used ( useMNC                   = T )
 -------- pkgs without standard "usePKG" On/Off switch in "data.pkg":  --------
 pkg/generic_advdiff      compiled   and   used ( useGAD                   = T )
 pkg/mom_common           compiled   and   used ( momStepping              = T )
 pkg/mom_vecinv           compiled   and   used ( +vectorInvariantMomentum = T )
 pkg/monitor              compiled   and   used ( monitorFreq > 0.         = T )
 pkg/debug                compiled but not used ( debugMode                = F )
 pkg/rw                   compiled   and   used
 pkg/mdsio                compiled   and   used
(PID.TID 0000.0001)  PACKAGES_BOOT: End of package Summary
(PID.TID 0000.0001) 
(PID.TID 0000.0001)  MNC_READPARMS: opening file 'data.mnc'
(PID.TID 0000.0001)  OPEN_COPY_DATA_FILE: opening file data.mnc
(PID.TID 0000.0001) // =======================================================
(PID.TID 0000.0001) // Parameter file "data.mnc"
(PID.TID 0000.0001) // =======================================================
(PID.TID 0000.0001) ># Example "data.mnc" file
(PID.TID 0000.0001) ># Lines beginning "#" are comments
(PID.TID 0000.0001) > &MNC_01
(PID.TID 0000.0001) ># mnc_echo_gvtypes=.FALSE.,
(PID.TID 0000.0001) ># mnc_use_indir=.FALSE.,
(PID.TID 0000.0001) ># mnc_use_outdir=.TRUE.,
(PID.TID 0000.0001) >#mnc_use_name_ni0=.TRUE.,
(PID.TID 0000.0001) > mnc_outdir_str='mnc_out_',
(PID.TID 0000.0001) >#mnc_outdir_date=.TRUE.,
(PID.TID 0000.0001) > monitor_mnc=.FALSE.,
(PID.TID 0000.0001) > snapshot_mnc=.TRUE.,
(PID.TID 0000.0001) > timeave_mnc=.TRUE.,
(PID.TID 0000.0001) > pickup_write_mnc=.FALSE.,
(PID.TID 0000.0001) > pickup_read_mnc=.FALSE.,
(PID.TID 0000.0001) > /
(PID.TID 0000.0001) ># Note: Some systems use & as the
(PID.TID 0000.0001) ># namelist terminator. Other systems
(PID.TID 0000.0001) ># use a / character (as shown here).
(PID.TID 0000.0001) 
(PID.TID 0000.0001)  MNC_READPARMS: finished reading data.mnc
(PID.TID 0000.0001) CAL_READPARMS: opening data.cal
(PID.TID 0000.0001)  OPEN_COPY_DATA_FILE: opening file data.cal
(PID.TID 0000.0001) // =======================================================
(PID.TID 0000.0001) // Parameter file "data.cal"
(PID.TID 0000.0001) // =======================================================
(PID.TID 0000.0001) >#
(PID.TID 0000.0001) ># *******************
(PID.TID 0000.0001) ># Calendar Parameters
(PID.TID 0000.0001) ># *******************
(PID.TID 0000.0001) > &CAL_NML
(PID.TID 0000.0001) > TheCalendar='gregorian',
(PID.TID 0000.0001) > startDate_1=19920101,
(PID.TID 0000.0001) > startDate_2=000000,
(PID.TID 0000.0001) > calendarDumps = .TRUE.
(PID.TID 0000.0001) > /
(PID.TID 0000.0001) 
(PID.TID 0000.0001) CAL_READPARMS: finished reading data.cal
(PID.TID 0000.0001) EXF_READPARMS: opening data.exf
(PID.TID 0000.0001)  OPEN_COPY_DATA_FILE: opening file data.exf
(PID.TID 0000.0001) // =======================================================
(PID.TID 0000.0001) // Parameter file "data.exf"
(PID.TID 0000.0001) // =======================================================
(PID.TID 0000.0001) ># *********************
(PID.TID 0000.0001) ># External Forcing Data
(PID.TID 0000.0001) ># *********************
(PID.TID 0000.0001) >#
(PID.TID 0000.0001) > &EXF_NML_01
(PID.TID 0000.0001) > exf_albedo        = 0.15,
(PID.TID 0000.0001) > exf_iprec         = 32,
(PID.TID 0000.0001) > exf_yftype        = 'RL',
(PID.TID 0000.0001) > useExfYearlyFields= .TRUE.,
(PID.TID 0000.0001) > twoDigitYear      = .TRUE.,
(PID.TID 0000.0001) > useExfCheckRange  = .FALSE.,
(PID.TID 0000.0001) > /
(PID.TID 0000.0001) >#
(PID.TID 0000.0001) > &EXF_NML_02
(PID.TID 0000.0001) > atempfile         = 'RG_tmp2m',
(PID.TID 0000.0001) > aqhfile           = 'RG_spfh2m',
(PID.TID 0000.0001) > precipfile        = 'RG_rain',
(PID.TID 0000.0001) > runofffile        = 'runoff-360x180x12.bin',
(PID.TID 0000.0001) > uwindfile         = 'RG_u10m',
(PID.TID 0000.0001) > vwindfile         = 'RG_v10m',
(PID.TID 0000.0001) > swdownfile        = 'RG_dsw',
(PID.TID 0000.0001) > lwdownfile        = 'RG_dlw',
(PID.TID 0000.0001) > climsssfile       = 'LEV01_SSS_360x180x12.bin',
(PID.TID 0000.0001) >#
(PID.TID 0000.0001) > atempstartdate1   = 19990301,
(PID.TID 0000.0001) > atempstartdate2   = 120000,
(PID.TID 0000.0001) > atempperiod       = 21600.0,
(PID.TID 0000.0001) >#
(PID.TID 0000.0001) > aqhstartdate1     = 19990301,
(PID.TID 0000.0001) > aqhstartdate2     = 120000,
(PID.TID 0000.0001) > aqhperiod         = 21600.0,
(PID.TID 0000.0001) >#
(PID.TID 0000.0001) > precipstartdate1  = 19990301,
(PID.TID 0000.0001) > precipstartdate2  = 120000,
(PID.TID 0000.0001) > precipperiod      = 21600.0,
(PID.TID 0000.0001) >#
(PID.TID 0000.0001) > runoffperiod      = -12.,
(PID.TID 0000.0001) >#
(PID.TID 0000.0001) > uwindstartdate1   = 19990301,
(PID.TID 0000.0001) > uwindstartdate2   = 120000,
(PID.TID 0000.0001) > uwindperiod       = 21600.0,
(PID.TID 0000.0001) >#
(PID.TID 0000.0001) > vwindstartdate1   = 19990301,
(PID.TID 0000.0001) > vwindstartdate2   = 120000,
(PID.TID 0000.0001) > vwindperiod       = 21600.0,
(PID.TID 0000.0001) >#
(PID.TID 0000.0001) > swdownstartdate1  = 19990301,
(PID.TID 0000.0001) > swdownstartdate2  = 090000,
(PID.TID 0000.0001) > swdownperiod      = 21600.0,
(PID.TID 0000.0001) >#
(PID.TID 0000.0001) > lwdownstartdate1  = 19990301,
(PID.TID 0000.0001) > lwdownstartdate2  = 090000,
(PID.TID 0000.0001) > lwdownperiod      = 21600.0,
(PID.TID 0000.0001) >#
(PID.TID 0000.0001) > climsssperiod     = -12.,
(PID.TID 0000.0001) > climsssTauRelax   = 8722203.,
(PID.TID 0000.0001) > /
(PID.TID 0000.0001) >#
(PID.TID 0000.0001) > &EXF_NML_03
(PID.TID 0000.0001) > exf_offset_atemp  = 273.3971,
(PID.TID 0000.0001) > exf_inscal_runoff = 3.1710e-08,
(PID.TID 0000.0001) > /
(PID.TID 0000.0001) >#
(PID.TID 0000.0001) > &EXF_NML_04
(PID.TID 0000.0001) > atemp_lon0        = 0.00D0,
(PID.TID 0000.0001) > atemp_lon_inc     = 1.875D0,
(PID.TID 0000.0001) > atemp_lat0        = -88.5420D0,
(PID.TID 0000.0001) > atemp_lat_inc     = 1.8888, 1.9000, 1.9024, 1.9034, 1.9039, 1.9042,
(PID.TID 0000.0001) >     1.9042, 1.9044, 1.9045, 1.9045, 1.9046, 1.9046, 1.9046, 1.9046,
(PID.TID 0000.0001) >     1.9047, 1.9046, 1.9047, 1.9047, 1.9047, 1.9047, 1.9047, 1.9047,
(PID.TID 0000.0001) >     1.9047, 1.9047, 1.9047, 1.9047, 1.9048, 1.9047, 1.9047, 1.9047,
(PID.TID 0000.0001) >     1.9047, 1.9048, 1.9047, 1.9047, 1.9048, 1.9047, 1.9047, 1.9048,
(PID.TID 0000.0001) >     1.9047, 1.9047, 1.9048, 1.9047, 1.9047, 1.9048, 1.9047, 1.9047,
(PID.TID 0000.0001) >     1.9048, 1.9047, 1.9047, 1.9048, 1.9047, 1.9047, 1.9048, 1.9047,
(PID.TID 0000.0001) >     1.9047, 1.9048, 1.9047, 1.9047, 1.9048, 1.9047, 1.9047, 1.9048,
(PID.TID 0000.0001) >     1.9047, 1.9047, 1.9047, 1.9047, 1.9048, 1.9047, 1.9047, 1.9047,
(PID.TID 0000.0001) >     1.9047, 1.9047, 1.9047, 1.9047, 1.9047, 1.9047, 1.9047, 1.9046,
(PID.TID 0000.0001) >     1.9047, 1.9046, 1.9046, 1.9046, 1.9046, 1.9045, 1.9045, 1.9044,
(PID.TID 0000.0001) >     1.9042, 1.9042, 1.9039, 1.9034, 1.9024, 1.9000, 1.8888, 1.8888,
(PID.TID 0000.0001) > atemp_nlon        = 192,
(PID.TID 0000.0001) > atemp_nlat        = 94,
(PID.TID 0000.0001) >#
(PID.TID 0000.0001) > aqh_lon0          = 0.00D0,
(PID.TID 0000.0001) > aqh_lon_inc       = 1.875D0,
(PID.TID 0000.0001) > aqh_lat0          = -88.5420D0,
(PID.TID 0000.0001) > aqh_lat_inc       = 1.8888, 1.9000, 1.9024, 1.9034, 1.9039, 1.9042,
(PID.TID 0000.0001) >     1.9042, 1.9044, 1.9045, 1.9045, 1.9046, 1.9046, 1.9046, 1.9046,
(PID.TID 0000.0001) >     1.9047, 1.9046, 1.9047, 1.9047, 1.9047, 1.9047, 1.9047, 1.9047,
(PID.TID 0000.0001) >     1.9047, 1.9047, 1.9047, 1.9047, 1.9048, 1.9047, 1.9047, 1.9047,
(PID.TID 0000.0001) >     1.9047, 1.9048, 1.9047, 1.9047, 1.9048, 1.9047, 1.9047, 1.9048,
(PID.TID 0000.0001) >     1.9047, 1.9047, 1.9048, 1.9047, 1.9047, 1.9048, 1.9047, 1.9047,
(PID.TID 0000.0001) >     1.9048, 1.9047, 1.9047, 1.9048, 1.9047, 1.9047, 1.9048, 1.9047,
(PID.TID 0000.0001) >     1.9047, 1.9048, 1.9047, 1.9047, 1.9048, 1.9047, 1.9047, 1.9048,
(PID.TID 0000.0001) >     1.9047, 1.9047, 1.9047, 1.9047, 1.9048, 1.9047, 1.9047, 1.9047,
(PID.TID 0000.0001) >     1.9047, 1.9047, 1.9047, 1.9047, 1.9047, 1.9047, 1.9047, 1.9046,
(PID.TID 0000.0001) >     1.9047, 1.9046, 1.9046, 1.9046, 1.9046, 1.9045, 1.9045, 1.9044,
(PID.TID 0000.0001) >     1.9042, 1.9042, 1.9039, 1.9034, 1.9024, 1.9000, 1.8888, 1.8888,
(PID.TID 0000.0001) > aqh_nlon          = 192,
(PID.TID 0000.0001) > aqh_nlat          = 94,
(PID.TID 0000.0001) >#
(PID.TID 0000.0001) > precip_lon0       = 0.00D0,
(PID.TID 0000.0001) > precip_lon_inc    = 1.875D0,
(PID.TID 0000.0001) > precip_lat0       = -88.5420D0,
(PID.TID 0000.0001) > precip_lat_inc    = 1.8888, 1.9000, 1.9024, 1.9034, 1.9039, 1.9042,
(PID.TID 0000.0001) >     1.9042, 1.9044, 1.9045, 1.9045, 1.9046, 1.9046, 1.9046, 1.9046,
(PID.TID 0000.0001) >     1.9047, 1.9046, 1.9047, 1.9047, 1.9047, 1.9047, 1.9047, 1.9047,
(PID.TID 0000.0001) >     1.9047, 1.9047, 1.9047, 1.9047, 1.9048, 1.9047, 1.9047, 1.9047,
(PID.TID 0000.0001) >     1.9047, 1.9048, 1.9047, 1.9047, 1.9048, 1.9047, 1.9047, 1.9048,
(PID.TID 0000.0001) >     1.9047, 1.9047, 1.9048, 1.9047, 1.9047, 1.9048, 1.9047, 1.9047,
(PID.TID 0000.0001) >     1.9048, 1.9047, 1.9047, 1.9048, 1.9047, 1.9047, 1.9048, 1.9047,
(PID.TID 0000.0001) >     1.9047, 1.9048, 1.9047, 1.9047, 1.9048, 1.9047, 1.9047, 1.9048,
(PID.TID 0000.0001) >     1.9047, 1.9047, 1.9047, 1.9047, 1.9048, 1.9047, 1.9047, 1.9047,
(PID.TID 0000.0001) >     1.9047, 1.9047, 1.9047, 1.9047, 1.9047, 1.9047, 1.9047, 1.9046,
(PID.TID 0000.0001) >     1.9047, 1.9046, 1.9046, 1.9046, 1.9046, 1.9045, 1.9045, 1.9044,
(PID.TID 0000.0001) >     1.9042, 1.9042, 1.9039, 1.9034, 1.9024, 1.9000, 1.8888, 1.8888,
(PID.TID 0000.0001) > precip_nlon       = 192,
(PID.TID 0000.0001) > precip_nlat       = 94,
(PID.TID 0000.0001) >#
(PID.TID 0000.0001) > runoff_lon0       = 0.50D0,
(PID.TID 0000.0001) > runoff_lon_inc    = 1.0D0,
(PID.TID 0000.0001) > runoff_lat0       = -89.5D0,
(PID.TID 0000.0001) > runoff_lat_inc    = 179*1.,
(PID.TID 0000.0001) > runoff_nlon       = 360,
(PID.TID 0000.0001) > runoff_nlat       = 180,
(PID.TID 0000.0001) >#
(PID.TID 0000.0001) > uwind_lon0        = 0.00D0,
(PID.TID 0000.0001) > uwind_lon_inc     = 1.875D0,
(PID.TID 0000.0001) > uwind_lat0        = -88.5420D0,
(PID.TID 0000.0001) > uwind_lat_inc     = 1.8888, 1.9000, 1.9024, 1.9034, 1.9039, 1.9042,
(PID.TID 0000.0001) >     1.9042, 1.9044, 1.9045, 1.9045, 1.9046, 1.9046, 1.9046, 1.9046,
(PID.TID 0000.0001) >     1.9047, 1.9046, 1.9047, 1.9047, 1.9047, 1.9047, 1.9047, 1.9047,
(PID.TID 0000.0001) >     1.9047, 1.9047, 1.9047, 1.9047, 1.9048, 1.9047, 1.9047, 1.9047,
(PID.TID 0000.0001) >     1.9047, 1.9048, 1.9047, 1.9047, 1.9048, 1.9047, 1.9047, 1.9048,
(PID.TID 0000.0001) >     1.9047, 1.9047, 1.9048, 1.9047, 1.9047, 1.9048, 1.9047, 1.9047,
(PID.TID 0000.0001) >     1.9048, 1.9047, 1.9047, 1.9048, 1.9047, 1.9047, 1.9048, 1.9047,
(PID.TID 0000.0001) >     1.9047, 1.9048, 1.9047, 1.9047, 1.9048, 1.9047, 1.9047, 1.9048,
(PID.TID 0000.0001) >     1.9047, 1.9047, 1.9047, 1.9047, 1.9048, 1.9047, 1.9047, 1.9047,
(PID.TID 0000.0001) >     1.9047, 1.9047, 1.9047, 1.9047, 1.9047, 1.9047, 1.9047, 1.9046,
(PID.TID 0000.0001) >     1.9047, 1.9046, 1.9046, 1.9046, 1.9046, 1.9045, 1.9045, 1.9044,
(PID.TID 0000.0001) >     1.9042, 1.9042, 1.9039, 1.9034, 1.9024, 1.9000, 1.8888, 1.8888,
(PID.TID 0000.0001) > uwind_nlon        = 192,
(PID.TID 0000.0001) > uwind_nlat        = 94,
(PID.TID 0000.0001) >#
(PID.TID 0000.0001) > vwind_lon0        = 0.00D0,
(PID.TID 0000.0001) > vwind_lon_inc     = 1.875D0,
(PID.TID 0000.0001) > vwind_lat0        = -88.5420D0,
(PID.TID 0000.0001) > vwind_lat_inc     = 1.8888, 1.9000, 1.9024, 1.9034, 1.9039, 1.9042,
(PID.TID 0000.0001) >     1.9042, 1.9044, 1.9045, 1.9045, 1.9046, 1.9046, 1.9046, 1.9046,
(PID.TID 0000.0001) >     1.9047, 1.9046, 1.9047, 1.9047, 1.9047, 1.9047, 1.9047, 1.9047,
(PID.TID 0000.0001) >     1.9047, 1.9047, 1.9047, 1.9047, 1.9048, 1.9047, 1.9047, 1.9047,
(PID.TID 0000.0001) >     1.9047, 1.9048, 1.9047, 1.9047, 1.9048, 1.9047, 1.9047, 1.9048,
(PID.TID 0000.0001) >     1.9047, 1.9047, 1.9048, 1.9047, 1.9047, 1.9048, 1.9047, 1.9047,
(PID.TID 0000.0001) >     1.9048, 1.9047, 1.9047, 1.9048, 1.9047, 1.9047, 1.9048, 1.9047,
(PID.TID 0000.0001) >     1.9047, 1.9048, 1.9047, 1.9047, 1.9048, 1.9047, 1.9047, 1.9048,
(PID.TID 0000.0001) >     1.9047, 1.9047, 1.9047, 1.9047, 1.9048, 1.9047, 1.9047, 1.9047,
(PID.TID 0000.0001) >     1.9047, 1.9047, 1.9047, 1.9047, 1.9047, 1.9047, 1.9047, 1.9046,
(PID.TID 0000.0001) >     1.9047, 1.9046, 1.9046, 1.9046, 1.9046, 1.9045, 1.9045, 1.9044,
(PID.TID 0000.0001) >     1.9042, 1.9042, 1.9039, 1.9034, 1.9024, 1.9000, 1.8888, 1.8888,
(PID.TID 0000.0001) > vwind_nlon        = 192,
(PID.TID 0000.0001) > vwind_nlat        = 94,
(PID.TID 0000.0001) >#
(PID.TID 0000.0001) > swdown_lon0       = 0.00D0,
(PID.TID 0000.0001) > swdown_lon_inc    = 1.875D0,
(PID.TID 0000.0001) > swdown_lat0       = -88.5420D0,
(PID.TID 0000.0001) > swdown_lat_inc    = 1.8888, 1.9000, 1.9024, 1.9034, 1.9039, 1.9042,
(PID.TID 0000.0001) >     1.9042, 1.9044, 1.9045, 1.9045, 1.9046, 1.9046, 1.9046, 1.9046,
(PID.TID 0000.0001) >     1.9047, 1.9046, 1.9047, 1.9047, 1.9047, 1.9047, 1.9047, 1.9047,
(PID.TID 0000.0001) >     1.9047, 1.9047, 1.9047, 1.9047, 1.9048, 1.9047, 1.9047, 1.9047,
(PID.TID 0000.0001) >     1.9047, 1.9048, 1.9047, 1.9047, 1.9048, 1.9047, 1.9047, 1.9048,
(PID.TID 0000.0001) >     1.9047, 1.9047, 1.9048, 1.9047, 1.9047, 1.9048, 1.9047, 1.9047,
(PID.TID 0000.0001) >     1.9048, 1.9047, 1.9047, 1.9048, 1.9047, 1.9047, 1.9048, 1.9047,
(PID.TID 0000.0001) >     1.9047, 1.9048, 1.9047, 1.9047, 1.9048, 1.9047, 1.9047, 1.9048,
(PID.TID 0000.0001) >     1.9047, 1.9047, 1.9047, 1.9047, 1.9048, 1.9047, 1.9047, 1.9047,
(PID.TID 0000.0001) >     1.9047, 1.9047, 1.9047, 1.9047, 1.9047, 1.9047, 1.9047, 1.9046,
(PID.TID 0000.0001) >     1.9047, 1.9046, 1.9046, 1.9046, 1.9046, 1.9045, 1.9045, 1.9044,
(PID.TID 0000.0001) >     1.9042, 1.9042, 1.9039, 1.9034, 1.9024, 1.9000, 1.8888, 1.8888,
(PID.TID 0000.0001) > swdown_nlon       = 192,
(PID.TID 0000.0001) > swdown_nlat       = 94,
(PID.TID 0000.0001) >#
(PID.TID 0000.0001) > lwdown_lon0       = 0.00D0,
(PID.TID 0000.0001) > lwdown_lon_inc    = 1.875D0,
(PID.TID 0000.0001) > lwdown_lat0       = -88.5420D0,
(PID.TID 0000.0001) > lwdown_lat_inc    = 1.8888, 1.9000, 1.9024, 1.9034, 1.9039, 1.9042,
(PID.TID 0000.0001) >     1.9042, 1.9044, 1.9045, 1.9045, 1.9046, 1.9046, 1.9046, 1.9046,
(PID.TID 0000.0001) >     1.9047, 1.9046, 1.9047, 1.9047, 1.9047, 1.9047, 1.9047, 1.9047,
(PID.TID 0000.0001) >     1.9047, 1.9047, 1.9047, 1.9047, 1.9048, 1.9047, 1.9047, 1.9047,
(PID.TID 0000.0001) >     1.9047, 1.9048, 1.9047, 1.9047, 1.9048, 1.9047, 1.9047, 1.9048,
(PID.TID 0000.0001) >     1.9047, 1.9047, 1.9048, 1.9047, 1.9047, 1.9048, 1.9047, 1.9047,
(PID.TID 0000.0001) >     1.9048, 1.9047, 1.9047, 1.9048, 1.9047, 1.9047, 1.9048, 1.9047,
(PID.TID 0000.0001) >     1.9047, 1.9048, 1.9047, 1.9047, 1.9048, 1.9047, 1.9047, 1.9048,
(PID.TID 0000.0001) >     1.9047, 1.9047, 1.9047, 1.9047, 1.9048, 1.9047, 1.9047, 1.9047,
(PID.TID 0000.0001) >     1.9047, 1.9047, 1.9047, 1.9047, 1.9047, 1.9047, 1.9047, 1.9046,
(PID.TID 0000.0001) >     1.9047, 1.9046, 1.9046, 1.9046, 1.9046, 1.9045, 1.9045, 1.9044,
(PID.TID 0000.0001) >     1.9042, 1.9042, 1.9039, 1.9034, 1.9024, 1.9000, 1.8888, 1.8888,
(PID.TID 0000.0001) > lwdown_nlon       = 192,
(PID.TID 0000.0001) > lwdown_nlat       = 94,
(PID.TID 0000.0001) >#
(PID.TID 0000.0001) > climsss_lon0      = 0.5,
(PID.TID 0000.0001) > climsss_lon_inc   = 1.,
(PID.TID 0000.0001) > climsss_lat0      = -89.5,
(PID.TID 0000.0001) > climsss_lat_inc   = 179*1.,
(PID.TID 0000.0001) > climsss_nlon      = 360,
(PID.TID 0000.0001) > climsss_nlat      = 180,
(PID.TID 0000.0001) > /
(PID.TID 0000.0001) >#
(PID.TID 0000.0001) > &EXF_NML_OBCS
(PID.TID 0000.0001) > obcsNstartdate1   = 19990219,
(PID.TID 0000.0001) > obcsNstartdate2   = 060000,
(PID.TID 0000.0001) > obcsNperiod       = 2635200.0,
(PID.TID 0000.0001) >#
(PID.TID 0000.0001) > obcsEstartdate1   = 19990219,
(PID.TID 0000.0001) > obcsEstartdate2   = 060000,
(PID.TID 0000.0001) > obcsEperiod       = 2635200.0,
(PID.TID 0000.0001) >#
(PID.TID 0000.0001) > obcsWstartdate1   = 19990219,
(PID.TID 0000.0001) > obcsWstartdate2   = 060000,
(PID.TID 0000.0001) > obcsWperiod       = 2635200.0,
(PID.TID 0000.0001) > /
(PID.TID 0000.0001) 
(PID.TID 0000.0001) EXF_READPARMS: reading EXF_NML_01
(PID.TID 0000.0001) EXF_READPARMS: reading EXF_NML_02
(PID.TID 0000.0001) EXF_READPARMS: reading EXF_NML_03
(PID.TID 0000.0001) EXF_READPARMS: reading EXF_NML_04
(PID.TID 0000.0001) EXF_READPARMS: reading EXF_NML_OBCS
(PID.TID 0000.0001) EXF_READPARMS: finished reading data.exf
(PID.TID 0000.0001)  OBCS_READPARMS: opening data.obcs
(PID.TID 0000.0001)  OPEN_COPY_DATA_FILE: opening file data.obcs
(PID.TID 0000.0001) // =======================================================
(PID.TID 0000.0001) // Parameter file "data.obcs"
(PID.TID 0000.0001) // =======================================================
(PID.TID 0000.0001) >#
(PID.TID 0000.0001) ># ***************
(PID.TID 0000.0001) ># Open boundaries
(PID.TID 0000.0001) ># ***************
(PID.TID 0000.0001) > &OBCS_PARM01
(PID.TID 0000.0001) > OB_Jnorth =   76*72,
(PID.TID 0000.0001) > OB_Iwest  =   72*1,
(PID.TID 0000.0001) >#
(PID.TID 0000.0001) >#OBCSfixTopo=.false.,
(PID.TID 0000.0001) >#
(PID.TID 0000.0001) > useOBCSprescribe=.TRUE.,
(PID.TID 0000.0001) >#
(PID.TID 0000.0001) > OBNsFile='OBNs_baltic_76x72.stable',
(PID.TID 0000.0001) > OBNtFile='OBNt_baltic_76x72.stable',
(PID.TID 0000.0001) > OBNuFile='OBNu_baltic_76x72.bin',
(PID.TID 0000.0001) > OBNvFile='OBNv_baltic_76x72.bin',
(PID.TID 0000.0001) > OBWsFile='OBWs_baltic_76x72.stable',
(PID.TID 0000.0001) > OBWtFile='OBWt_baltic_76x72.stable',
(PID.TID 0000.0001) > OBWuFile='OBWu_baltic_76x72.bin',
(PID.TID 0000.0001) > OBWvFile='OBWv_baltic_76x72.bin',
(PID.TID 0000.0001) >#
(PID.TID 0000.0001) > OBNptrFile(1)='OBN_DIC_76x72x24_baltic_128.bin',
(PID.TID 0000.0001) > OBWptrFile(1)='OBW_DIC_76x72x24_baltic_128.bin',
(PID.TID 0000.0001) > OBNptrFile(2)='OBN_NH4_76x72x24_baltic_128.bin',
(PID.TID 0000.0001) > OBWptrFile(2)='OBW_NH4_76x72x24_baltic_128.bin',
(PID.TID 0000.0001) > OBNptrFile(3)='OBN_NO2_76x72x24_baltic_128.bin',
(PID.TID 0000.0001) > OBWptrFile(3)='OBW_NO2_76x72x24_baltic_128.bin',
(PID.TID 0000.0001) > OBNptrFile(4)='OBN_NO3_76x72x24_baltic_128.bin',
(PID.TID 0000.0001) > OBWptrFile(4)='OBW_NO3_76x72x24_baltic_128.bin',
(PID.TID 0000.0001) > OBNptrFile(5)='OBN_PO4_76x72x24_baltic_128.bin',
(PID.TID 0000.0001) > OBWptrFile(5)='OBW_PO4_76x72x24_baltic_128.bin',
(PID.TID 0000.0001) > OBNptrFile(6)='OBN_SiO2_76x72x24_baltic_128.bin',
(PID.TID 0000.0001) > OBWptrFile(6)='OBW_SiO2_76x72x24_baltic_128.bin',
(PID.TID 0000.0001) > OBNptrFile(7)='OBN_FeT_76x72x24_baltic_128.bin',
(PID.TID 0000.0001) > OBWptrFile(7)='OBW_FeT_76x72x24_baltic_128.bin',
(PID.TID 0000.0001) > OBNptrFile(8)='OBN_zero_76x72x24_baltic_128.bin',
(PID.TID 0000.0001) > OBWptrFile(8)='OBW_zero_76x72x24_baltic_128.bin',
(PID.TID 0000.0001) > OBNptrFile(9)='OBN_DON_76x72x24_baltic_128.bin',
(PID.TID 0000.0001) > OBWptrFile(9)='OBW_DON_76x72x24_baltic_128.bin',
(PID.TID 0000.0001) > OBNptrFile(10)='OBN_DOP_76x72x24_baltic_128.bin',
(PID.TID 0000.0001) > OBWptrFile(10)='OBW_DOP_76x72x24_baltic_128.bin',
(PID.TID 0000.0001) > OBNptrFile(11)='OBN_DOFe_76x72x24_baltic_128.bin',
(PID.TID 0000.0001) > OBWptrFile(11)='OBW_DOFe_76x72x24_baltic_128.bin',
(PID.TID 0000.0001) > OBNptrFile(12)='OBN_zero_76x72x24_baltic_128.bin',
(PID.TID 0000.0001) > OBWptrFile(12)='OBW_zero_76x72x24_baltic_128.bin',
(PID.TID 0000.0001) > OBNptrFile(13)='OBN_PON_76x72x24_baltic_128.bin',
(PID.TID 0000.0001) > OBWptrFile(13)='OBW_PON_76x72x24_baltic_128.bin',
(PID.TID 0000.0001) > OBNptrFile(14)='OBN_POP_76x72x24_baltic_128.bin',
(PID.TID 0000.0001) > OBWptrFile(14)='OBW_POP_76x72x24_baltic_128.bin',
(PID.TID 0000.0001) > OBNptrFile(15)='OBN_POSi_76x72x24_baltic_128.bin',
(PID.TID 0000.0001) > OBWptrFile(15)='OBW_POSi_76x72x24_baltic_128.bin',
(PID.TID 0000.0001) > OBNptrFile(16)='OBN_POFe_76x72x24_baltic_128.bin',
(PID.TID 0000.0001) > OBWptrFile(16)='OBW_POFe_76x72x24_baltic_128.bin',
(PID.TID 0000.0001) > OBNptrFile(17)='OBN_zero_76x72x24_baltic_128.bin',
(PID.TID 0000.0001) > OBWptrFile(17)='OBW_zero_76x72x24_baltic_128.bin',
(PID.TID 0000.0001) > OBNptrFile(18)='OBN_Phy01_76x72x24_baltic_128.bin',
(PID.TID 0000.0001) > OBWptrFile(18)='OBW_Phy01_76x72x24_baltic_128.bin',
(PID.TID 0000.0001) > OBNptrFile(19)='OBN_Phy02_76x72x24_baltic_128.bin',
(PID.TID 0000.0001) > OBWptrFile(19)='OBW_Phy02_76x72x24_baltic_128.bin',
(PID.TID 0000.0001) > OBNptrFile(20)='OBN_Phy03_76x72x24_baltic_128.bin',
(PID.TID 0000.0001) > OBWptrFile(20)='OBW_Phy03_76x72x24_baltic_128.bin',
(PID.TID 0000.0001) > OBNptrFile(21)='OBN_Phy04_76x72x24_baltic_128.bin',
(PID.TID 0000.0001) > OBWptrFile(21)='OBW_Phy04_76x72x24_baltic_128.bin',
(PID.TID 0000.0001) > OBNptrFile(22)='OBN_Phy05_76x72x24_baltic_128.bin',
(PID.TID 0000.0001) > OBWptrFile(22)='OBW_Phy05_76x72x24_baltic_128.bin',
(PID.TID 0000.0001) > OBNptrFile(23)='OBN_Phy06_76x72x24_baltic_128.bin',
(PID.TID 0000.0001) > OBWptrFile(23)='OBW_Phy06_76x72x24_baltic_128.bin',
(PID.TID 0000.0001) > OBNptrFile(24)='OBN_Phy07_76x72x24_baltic_128.bin',
(PID.TID 0000.0001) > OBWptrFile(24)='OBW_Phy07_76x72x24_baltic_128.bin',
(PID.TID 0000.0001) > OBNptrFile(25)='OBN_Phy08_76x72x24_baltic_128.bin',
(PID.TID 0000.0001) > OBWptrFile(25)='OBW_Phy08_76x72x24_baltic_128.bin',
(PID.TID 0000.0001) > OBNptrFile(26)='OBN_Phy09_76x72x24_baltic_128.bin',
(PID.TID 0000.0001) > OBWptrFile(26)='OBW_Phy09_76x72x24_baltic_128.bin',
(PID.TID 0000.0001) > OBNptrFile(27)='OBN_Phy10_76x72x24_baltic_128.bin',
(PID.TID 0000.0001) > OBWptrFile(27)='OBW_Phy10_76x72x24_baltic_128.bin',
(PID.TID 0000.0001) > OBNptrFile(28)='OBN_Phy11_76x72x24_baltic_128.bin',
(PID.TID 0000.0001) > OBWptrFile(28)='OBW_Phy11_76x72x24_baltic_128.bin',
(PID.TID 0000.0001) > OBNptrFile(29)='OBN_Phy12_76x72x24_baltic_128.bin',
(PID.TID 0000.0001) > OBWptrFile(29)='OBW_Phy12_76x72x24_baltic_128.bin',
(PID.TID 0000.0001) > OBNptrFile(30)='OBN_Phy13_76x72x24_baltic_128.bin',
(PID.TID 0000.0001) > OBWptrFile(30)='OBW_Phy13_76x72x24_baltic_128.bin',
(PID.TID 0000.0001) > OBNptrFile(31)='OBN_Phy14_76x72x24_baltic_128.bin',
(PID.TID 0000.0001) > OBWptrFile(31)='OBW_Phy14_76x72x24_baltic_128.bin',
(PID.TID 0000.0001) > OBNptrFile(32)='OBN_Phy15_76x72x24_baltic_128.bin',
(PID.TID 0000.0001) > OBWptrFile(32)='OBW_Phy15_76x72x24_baltic_128.bin',
(PID.TID 0000.0001) > OBNptrFile(33)='OBN_Phy16_76x72x24_baltic_128.bin',
(PID.TID 0000.0001) > OBWptrFile(33)='OBW_Phy16_76x72x24_baltic_128.bin',
(PID.TID 0000.0001) > OBNptrFile(34)='OBN_Phy17_76x72x24_baltic_128.bin',
(PID.TID 0000.0001) > OBWptrFile(34)='OBW_Phy17_76x72x24_baltic_128.bin',
(PID.TID 0000.0001) > OBNptrFile(35)='OBN_Phy18_76x72x24_baltic_128.bin',
(PID.TID 0000.0001) > OBWptrFile(35)='OBW_Phy18_76x72x24_baltic_128.bin',
(PID.TID 0000.0001) > OBNptrFile(36)='OBN_Phy19_76x72x24_baltic_128.bin',
(PID.TID 0000.0001) > OBWptrFile(36)='OBW_Phy19_76x72x24_baltic_128.bin',
(PID.TID 0000.0001) > OBNptrFile(37)='OBN_Phy20_76x72x24_baltic_128.bin',
(PID.TID 0000.0001) > OBWptrFile(37)='OBW_Phy20_76x72x24_baltic_128.bin',
(PID.TID 0000.0001) > OBNptrFile(38)='OBN_Phy21_76x72x24_baltic_128.bin',
(PID.TID 0000.0001) > OBWptrFile(38)='OBW_Phy21_76x72x24_baltic_128.bin',
(PID.TID 0000.0001) > OBNptrFile(39)='OBN_Phy22_76x72x24_baltic_128.bin',
(PID.TID 0000.0001) > OBWptrFile(39)='OBW_Phy22_76x72x24_baltic_128.bin',
(PID.TID 0000.0001) > OBNptrFile(40)='OBN_Phy23_76x72x24_baltic_128.bin',
(PID.TID 0000.0001) > OBWptrFile(40)='OBW_Phy23_76x72x24_baltic_128.bin',
(PID.TID 0000.0001) > OBNptrFile(41)='OBN_Phy24_76x72x24_baltic_128.bin',
(PID.TID 0000.0001) > OBWptrFile(41)='OBW_Phy24_76x72x24_baltic_128.bin',
(PID.TID 0000.0001) > OBNptrFile(42)='OBN_Phy25_76x72x24_baltic_128.bin',
(PID.TID 0000.0001) > OBWptrFile(42)='OBW_Phy25_76x72x24_baltic_128.bin',
(PID.TID 0000.0001) > OBNptrFile(43)='OBN_Phy26_76x72x24_baltic_128.bin',
(PID.TID 0000.0001) > OBWptrFile(43)='OBW_Phy26_76x72x24_baltic_128.bin',
(PID.TID 0000.0001) > OBNptrFile(44)='OBN_Phy27_76x72x24_baltic_128.bin',
(PID.TID 0000.0001) > OBWptrFile(44)='OBW_Phy27_76x72x24_baltic_128.bin',
(PID.TID 0000.0001) > OBNptrFile(45)='OBN_Phy28_76x72x24_baltic_128.bin',
(PID.TID 0000.0001) > OBWptrFile(45)='OBW_Phy28_76x72x24_baltic_128.bin',
(PID.TID 0000.0001) > OBNptrFile(46)='OBN_Phy29_76x72x24_baltic_128.bin',
(PID.TID 0000.0001) > OBWptrFile(46)='OBW_Phy29_76x72x24_baltic_128.bin',
(PID.TID 0000.0001) > OBNptrFile(47)='OBN_Phy30_76x72x24_baltic_128.bin',
(PID.TID 0000.0001) > OBWptrFile(47)='OBW_Phy30_76x72x24_baltic_128.bin',
(PID.TID 0000.0001) > OBNptrFile(48)='OBN_Phy31_76x72x24_baltic_128.bin',
(PID.TID 0000.0001) > OBWptrFile(48)='OBW_Phy31_76x72x24_baltic_128.bin',
(PID.TID 0000.0001) > OBNptrFile(49)='OBN_Phy32_76x72x24_baltic_128.bin',
(PID.TID 0000.0001) > OBWptrFile(49)='OBW_Phy32_76x72x24_baltic_128.bin',
(PID.TID 0000.0001) > OBNptrFile(50)='OBN_Phy33_76x72x24_baltic_128.bin',
(PID.TID 0000.0001) > OBWptrFile(50)='OBW_Phy33_76x72x24_baltic_128.bin',
(PID.TID 0000.0001) > OBNptrFile(51)='OBN_Phy34_76x72x24_baltic_128.bin',
(PID.TID 0000.0001) > OBWptrFile(51)='OBW_Phy34_76x72x24_baltic_128.bin',
(PID.TID 0000.0001) > OBNptrFile(52)='OBN_Phy35_76x72x24_baltic_128.bin',
(PID.TID 0000.0001) > OBWptrFile(52)='OBW_Phy35_76x72x24_baltic_128.bin',
(PID.TID 0000.0001) > OBNptrFile(53)='OBN_Phy36_76x72x24_baltic_128.bin',
(PID.TID 0000.0001) > OBWptrFile(53)='OBW_Phy36_76x72x24_baltic_128.bin',
(PID.TID 0000.0001) > OBNptrFile(54)='OBN_Phy37_76x72x24_baltic_128.bin',
(PID.TID 0000.0001) > OBWptrFile(54)='OBW_Phy37_76x72x24_baltic_128.bin',
(PID.TID 0000.0001) > OBNptrFile(55)='OBN_Phy38_76x72x24_baltic_128.bin',
(PID.TID 0000.0001) > OBWptrFile(55)='OBW_Phy38_76x72x24_baltic_128.bin',
(PID.TID 0000.0001) > OBNptrFile(56)='OBN_Phy39_76x72x24_baltic_128.bin',
(PID.TID 0000.0001) > OBWptrFile(56)='OBW_Phy39_76x72x24_baltic_128.bin',
(PID.TID 0000.0001) > OBNptrFile(57)='OBN_Phy40_76x72x24_baltic_128.bin',
(PID.TID 0000.0001) > OBWptrFile(57)='OBW_Phy40_76x72x24_baltic_128.bin',
(PID.TID 0000.0001) > OBNptrFile(58)='OBN_Phy41_76x72x24_baltic_128.bin',
(PID.TID 0000.0001) > OBWptrFile(58)='OBW_Phy41_76x72x24_baltic_128.bin',
(PID.TID 0000.0001) > OBNptrFile(59)='OBN_Phy42_76x72x24_baltic_128.bin',
(PID.TID 0000.0001) > OBWptrFile(59)='OBW_Phy42_76x72x24_baltic_128.bin',
(PID.TID 0000.0001) > OBNptrFile(60)='OBN_Phy43_76x72x24_baltic_128.bin',
(PID.TID 0000.0001) > OBWptrFile(60)='OBW_Phy43_76x72x24_baltic_128.bin',
(PID.TID 0000.0001) > OBNptrFile(61)='OBN_Phy44_76x72x24_baltic_128.bin',
(PID.TID 0000.0001) > OBWptrFile(61)='OBW_Phy44_76x72x24_baltic_128.bin',
(PID.TID 0000.0001) > OBNptrFile(62)='OBN_Phy45_76x72x24_baltic_128.bin',
(PID.TID 0000.0001) > OBWptrFile(62)='OBW_Phy45_76x72x24_baltic_128.bin',
(PID.TID 0000.0001) > OBNptrFile(63)='OBN_Phy46_76x72x24_baltic_128.bin',
(PID.TID 0000.0001) > OBWptrFile(63)='OBW_Phy46_76x72x24_baltic_128.bin',
(PID.TID 0000.0001) > OBNptrFile(64)='OBN_Phy47_76x72x24_baltic_128.bin',
(PID.TID 0000.0001) > OBWptrFile(64)='OBW_Phy47_76x72x24_baltic_128.bin',
(PID.TID 0000.0001) > OBNptrFile(65)='OBN_Phy48_76x72x24_baltic_128.bin',
(PID.TID 0000.0001) > OBWptrFile(65)='OBW_Phy48_76x72x24_baltic_128.bin',
(PID.TID 0000.0001) > OBNptrFile(66)='OBN_Phy49_76x72x24_baltic_128.bin',
(PID.TID 0000.0001) > OBWptrFile(66)='OBW_Phy49_76x72x24_baltic_128.bin',
(PID.TID 0000.0001) > OBNptrFile(67)='OBN_Phy50_76x72x24_baltic_128.bin',
(PID.TID 0000.0001) > OBWptrFile(67)='OBW_Phy50_76x72x24_baltic_128.bin',
(PID.TID 0000.0001) > OBNptrFile(68)='OBN_Phy51_76x72x24_baltic_128.bin',
(PID.TID 0000.0001) > OBWptrFile(68)='OBW_Phy51_76x72x24_baltic_128.bin',
(PID.TID 0000.0001) > OBNptrFile(69)='OBN_Phy52_76x72x24_baltic_128.bin',
(PID.TID 0000.0001) > OBWptrFile(69)='OBW_Phy52_76x72x24_baltic_128.bin',
(PID.TID 0000.0001) > OBNptrFile(70)='OBN_Phy53_76x72x24_baltic_128.bin',
(PID.TID 0000.0001) > OBWptrFile(70)='OBW_Phy53_76x72x24_baltic_128.bin',
(PID.TID 0000.0001) > OBNptrFile(71)='OBN_Phy54_76x72x24_baltic_128.bin',
(PID.TID 0000.0001) > OBWptrFile(71)='OBW_Phy54_76x72x24_baltic_128.bin',
(PID.TID 0000.0001) > OBNptrFile(72)='OBN_Phy55_76x72x24_baltic_128.bin',
(PID.TID 0000.0001) > OBWptrFile(72)='OBW_Phy55_76x72x24_baltic_128.bin',
(PID.TID 0000.0001) > OBNptrFile(73)='OBN_Phy56_76x72x24_baltic_128.bin',
(PID.TID 0000.0001) > OBWptrFile(73)='OBW_Phy56_76x72x24_baltic_128.bin',
(PID.TID 0000.0001) > OBNptrFile(74)='OBN_Phy57_76x72x24_baltic_128.bin',
(PID.TID 0000.0001) > OBWptrFile(74)='OBW_Phy57_76x72x24_baltic_128.bin',
(PID.TID 0000.0001) > OBNptrFile(75)='OBN_Phy58_76x72x24_baltic_128.bin',
(PID.TID 0000.0001) > OBWptrFile(75)='OBW_Phy58_76x72x24_baltic_128.bin',
(PID.TID 0000.0001) > OBNptrFile(76)='OBN_Phy59_76x72x24_baltic_128.bin',
(PID.TID 0000.0001) > OBWptrFile(76)='OBW_Phy59_76x72x24_baltic_128.bin',
(PID.TID 0000.0001) > OBNptrFile(77)='OBN_Phy60_76x72x24_baltic_128.bin',
(PID.TID 0000.0001) > OBWptrFile(77)='OBW_Phy60_76x72x24_baltic_128.bin',
(PID.TID 0000.0001) > OBNptrFile(78)='OBN_Phy61_76x72x24_baltic_128.bin',
(PID.TID 0000.0001) > OBWptrFile(78)='OBW_Phy61_76x72x24_baltic_128.bin',
(PID.TID 0000.0001) > OBNptrFile(79)='OBN_Phy62_76x72x24_baltic_128.bin',
(PID.TID 0000.0001) > OBWptrFile(79)='OBW_Phy62_76x72x24_baltic_128.bin',
(PID.TID 0000.0001) > OBNptrFile(80)='OBN_Phy63_76x72x24_baltic_128.bin',
(PID.TID 0000.0001) > OBWptrFile(80)='OBW_Phy63_76x72x24_baltic_128.bin',
(PID.TID 0000.0001) > OBNptrFile(81)='OBN_Phy64_76x72x24_baltic_128.bin',
(PID.TID 0000.0001) > OBWptrFile(81)='OBW_Phy64_76x72x24_baltic_128.bin',
(PID.TID 0000.0001) > OBNptrFile(82)='OBN_Phy65_76x72x24_baltic_128.bin',
(PID.TID 0000.0001) > OBWptrFile(82)='OBW_Phy65_76x72x24_baltic_128.bin',
(PID.TID 0000.0001) > OBNptrFile(83)='OBN_Phy66_76x72x24_baltic_128.bin',
(PID.TID 0000.0001) > OBWptrFile(83)='OBW_Phy66_76x72x24_baltic_128.bin',
(PID.TID 0000.0001) > OBNptrFile(84)='OBN_Phy67_76x72x24_baltic_128.bin',
(PID.TID 0000.0001) > OBWptrFile(84)='OBW_Phy67_76x72x24_baltic_128.bin',
(PID.TID 0000.0001) > OBNptrFile(85)='OBN_Phy68_76x72x24_baltic_128.bin',
(PID.TID 0000.0001) > OBWptrFile(85)='OBW_Phy68_76x72x24_baltic_128.bin',
(PID.TID 0000.0001) > OBNptrFile(86)='OBN_Phy69_76x72x24_baltic_128.bin',
(PID.TID 0000.0001) > OBWptrFile(86)='OBW_Phy69_76x72x24_baltic_128.bin',
(PID.TID 0000.0001) > OBNptrFile(87)='OBN_Phy70_76x72x24_baltic_128.bin',
(PID.TID 0000.0001) > OBWptrFile(87)='OBW_Phy70_76x72x24_baltic_128.bin',
(PID.TID 0000.0001) > OBNptrFile(88)='OBN_Phy71_76x72x24_baltic_128.bin',
(PID.TID 0000.0001) > OBWptrFile(88)='OBW_Phy71_76x72x24_baltic_128.bin',
(PID.TID 0000.0001) > OBNptrFile(89)='OBN_Phy72_76x72x24_baltic_128.bin',
(PID.TID 0000.0001) > OBWptrFile(89)='OBW_Phy72_76x72x24_baltic_128.bin',
(PID.TID 0000.0001) > OBNptrFile(90)='OBN_Phy73_76x72x24_baltic_128.bin',
(PID.TID 0000.0001) > OBWptrFile(90)='OBW_Phy73_76x72x24_baltic_128.bin',
(PID.TID 0000.0001) > OBNptrFile(91)='OBN_Phy74_76x72x24_baltic_128.bin',
(PID.TID 0000.0001) > OBWptrFile(91)='OBW_Phy74_76x72x24_baltic_128.bin',
(PID.TID 0000.0001) > OBNptrFile(92)='OBN_Phy75_76x72x24_baltic_128.bin',
(PID.TID 0000.0001) > OBWptrFile(92)='OBW_Phy75_76x72x24_baltic_128.bin',
(PID.TID 0000.0001) > OBNptrFile(93)='OBN_Phy76_76x72x24_baltic_128.bin',
(PID.TID 0000.0001) > OBWptrFile(93)='OBW_Phy76_76x72x24_baltic_128.bin',
(PID.TID 0000.0001) > OBNptrFile(94)='OBN_Phy77_76x72x24_baltic_128.bin',
(PID.TID 0000.0001) > OBWptrFile(94)='OBW_Phy77_76x72x24_baltic_128.bin',
(PID.TID 0000.0001) > OBNptrFile(95)='OBN_Phy78_76x72x24_baltic_128.bin',
(PID.TID 0000.0001) > OBWptrFile(95)='OBW_Phy78_76x72x24_baltic_128.bin',
(PID.TID 0000.0001) > OBNptrFile(96)='OBN_ZOO1P_76x72x24_baltic_128.bin',
(PID.TID 0000.0001) > OBWptrFile(96)='OBW_ZOO1P_76x72x24_baltic_128.bin',
(PID.TID 0000.0001) > OBNptrFile(97)='OBN_ZOO2P_76x72x24_baltic_128.bin',
(PID.TID 0000.0001) > OBWptrFile(97)='OBW_ZOO2P_76x72x24_baltic_128.bin',
(PID.TID 0000.0001) > OBCSptrFactor(1:17)= 17*1.0,
(PID.TID 0000.0001) > OBCSptrFactor(18:97)= 80*120.0,
(PID.TID 0000.0001) >#
(PID.TID 0000.0001) > /
(PID.TID 0000.0001) >
(PID.TID 0000.0001) ># *****************************************
(PID.TID 0000.0001) ># Orlanski Boundary Condition Parameters.
(PID.TID 0000.0001) ># *****************************************
(PID.TID 0000.0001) ># &OBCS_PARM02
(PID.TID 0000.0001) ># cvelTimeScale = 2000.,
(PID.TID 0000.0001) ># /
(PID.TID 0000.0001) >
(PID.TID 0000.0001) ># *****************************************
(PID.TID 0000.0001) ># Sponge Layer Parameters.
(PID.TID 0000.0001) ># *****************************************
(PID.TID 0000.0001) ># &OBCS_PARM03
(PID.TID 0000.0001) ># Urelaxobcsinner=7776000.E0,
(PID.TID 0000.0001) ># Urelaxobcsbound=2592000.E0,
(PID.TID 0000.0001) ># Vrelaxobcsinner=7776000.E0,
(PID.TID 0000.0001) ># Vrelaxobcsbound=2592000.E0,
(PID.TID 0000.0001) ># spongeThickness=10,
(PID.TID 0000.0001) ># /
(PID.TID 0000.0001) 
(PID.TID 0000.0001)  OBCS_READPARMS: finished reading data.obcs
(PID.TID 0000.0001)  OB_indexUnset = /* unset OB index value (i.e. no OB) */
(PID.TID 0000.0001)                       0
(PID.TID 0000.0001)     ;
(PID.TID 0000.0001)  Northern OB global indices : OB_Jnorth =
(PID.TID 0000.0001)    76 @       72                            /* I =  1: 76 */
(PID.TID 0000.0001)  Southern OB global indices : OB_Jsouth =
(PID.TID 0000.0001)    76 @        0                            /* I =  1: 76 */
(PID.TID 0000.0001)  Eastern  OB global indices : OB_Ieast =
(PID.TID 0000.0001)    72 @        0                            /* J =  1: 72 */
(PID.TID 0000.0001)  Western  OB global indices : OB_Iwest =
(PID.TID 0000.0001)    72 @        1                            /* J =  1: 72 */
(PID.TID 0000.0001) 
(PID.TID 0000.0001)  KPP_INIT: opening data.kpp
(PID.TID 0000.0001)  OPEN_COPY_DATA_FILE: opening file data.kpp
(PID.TID 0000.0001) // =======================================================
(PID.TID 0000.0001) // Parameter file "data.kpp"
(PID.TID 0000.0001) // =======================================================
(PID.TID 0000.0001) ># KPP parameters
(PID.TID 0000.0001) > &KPP_PARM01
(PID.TID 0000.0001) > KPPmixingMaps   = .FALSE.,
(PID.TID 0000.0001) > KPPwriteState   = .FALSE.,
(PID.TID 0000.0001) > kpp_dumpFreq    = 0.
(PID.TID 0000.0001) > kpp_tavefreq    = 0.
(PID.TID 0000.0001) > Ricr            = 0.3559
(PID.TID 0000.0001) > Riinfty         = 0.6998
(PID.TID 0000.0001) > /
(PID.TID 0000.0001) 
(PID.TID 0000.0001)  KPP_INIT: finished reading data.kpp
(PID.TID 0000.0001)  PTRACERS_READPARMS: opening data.ptracers
(PID.TID 0000.0001)  OPEN_COPY_DATA_FILE: opening file data.ptracers
(PID.TID 0000.0001) // =======================================================
(PID.TID 0000.0001) // Parameter file "data.ptracers"
(PID.TID 0000.0001) // =======================================================
(PID.TID 0000.0001) > &PTRACERS_PARM01
(PID.TID 0000.0001) > PTRACERS_numInUse=97,
(PID.TID 0000.0001) ># 366 days == 19930101 060000
(PID.TID 0000.0001) > PTRACERS_Iter0= 26352,
(PID.TID 0000.0001) >#
(PID.TID 0000.0001) > PTRACERS_advScheme = 97*33,
(PID.TID 0000.0001) > PTRACERS_diffKh    = 97*0.E3,
(PID.TID 0000.0001) > PTRACERS_diffKr    = 97*1.E-6,
(PID.TID 0000.0001) > PTRACERS_useKPP    = 97*.TRUE. ,
(PID.TID 0000.0001) >#
(PID.TID 0000.0001) > PTRACERS_names(1)= 'DIC',
(PID.TID 0000.0001) > PTRACERS_names(2)= 'NH4',
(PID.TID 0000.0001) > PTRACERS_names(3)= 'NO2',
(PID.TID 0000.0001) > PTRACERS_names(4)= 'NO3',
(PID.TID 0000.0001) > PTRACERS_names(5)= 'PO4',
(PID.TID 0000.0001) > PTRACERS_names(6)= 'SiO2',
(PID.TID 0000.0001) > PTRACERS_names(7)= 'FeT',
(PID.TID 0000.0001) > PTRACERS_names(8)= 'DOC',
(PID.TID 0000.0001) > PTRACERS_names(9)= 'DON',
(PID.TID 0000.0001) > PTRACERS_names(10)= 'DOP',
(PID.TID 0000.0001) > PTRACERS_names(11)= 'DOFe',
(PID.TID 0000.0001) > PTRACERS_names(12)= 'POC',
(PID.TID 0000.0001) > PTRACERS_names(13)= 'PON',
(PID.TID 0000.0001) > PTRACERS_names(14)= 'POP',
(PID.TID 0000.0001) > PTRACERS_names(15)= 'POSi',
(PID.TID 0000.0001) > PTRACERS_names(16)= 'POFe',
(PID.TID 0000.0001) > PTRACERS_names(17)= 'PIC',
(PID.TID 0000.0001) > PTRACERS_names(18)= 'c01',
(PID.TID 0000.0001) > PTRACERS_names(19)= 'c02',
(PID.TID 0000.0001) > PTRACERS_names(20)= 'c03',
(PID.TID 0000.0001) > PTRACERS_names(21)= 'c04',
(PID.TID 0000.0001) > PTRACERS_names(22)= 'c05',
(PID.TID 0000.0001) > PTRACERS_names(23)= 'c06',
(PID.TID 0000.0001) > PTRACERS_names(24)= 'c07',
(PID.TID 0000.0001) > PTRACERS_names(25)= 'c08',
(PID.TID 0000.0001) > PTRACERS_names(26)= 'c09',
(PID.TID 0000.0001) > PTRACERS_names(27)= 'c10',
(PID.TID 0000.0001) > PTRACERS_names(28)= 'c11',
(PID.TID 0000.0001) > PTRACERS_names(29)= 'c12',
(PID.TID 0000.0001) > PTRACERS_names(30)= 'c13',
(PID.TID 0000.0001) > PTRACERS_names(31)= 'c14',
(PID.TID 0000.0001) > PTRACERS_names(32)= 'c15',
(PID.TID 0000.0001) > PTRACERS_names(33)= 'c16',
(PID.TID 0000.0001) > PTRACERS_names(34)= 'c17',
(PID.TID 0000.0001) > PTRACERS_names(35)= 'c18',
(PID.TID 0000.0001) > PTRACERS_names(36)= 'c19',
(PID.TID 0000.0001) > PTRACERS_names(37)= 'c20',
(PID.TID 0000.0001) > PTRACERS_names(38)= 'c21',
(PID.TID 0000.0001) > PTRACERS_names(39)= 'c22',
(PID.TID 0000.0001) > PTRACERS_names(40)= 'c23',
(PID.TID 0000.0001) > PTRACERS_names(41)= 'c24',
(PID.TID 0000.0001) > PTRACERS_names(42)= 'c25',
(PID.TID 0000.0001) > PTRACERS_names(43)= 'c26',
(PID.TID 0000.0001) > PTRACERS_names(44)= 'c27',
(PID.TID 0000.0001) > PTRACERS_names(45)= 'c28',
(PID.TID 0000.0001) > PTRACERS_names(46)= 'c29',
(PID.TID 0000.0001) > PTRACERS_names(47)= 'c30',
(PID.TID 0000.0001) > PTRACERS_names(48)= 'c31',
(PID.TID 0000.0001) > PTRACERS_names(49)= 'c32',
(PID.TID 0000.0001) > PTRACERS_names(50)= 'c33',
(PID.TID 0000.0001) > PTRACERS_names(51)= 'c34',
(PID.TID 0000.0001) > PTRACERS_names(52)= 'c35',
(PID.TID 0000.0001) > PTRACERS_names(53)= 'c36',
(PID.TID 0000.0001) > PTRACERS_names(54)= 'c37',
(PID.TID 0000.0001) > PTRACERS_names(55)= 'c38',
(PID.TID 0000.0001) > PTRACERS_names(56)= 'c39',
(PID.TID 0000.0001) > PTRACERS_names(57)= 'c40',
(PID.TID 0000.0001) > PTRACERS_names(58)= 'c41',
(PID.TID 0000.0001) > PTRACERS_names(59)= 'c42',
(PID.TID 0000.0001) > PTRACERS_names(60)= 'c43',
(PID.TID 0000.0001) > PTRACERS_names(61)= 'c44',
(PID.TID 0000.0001) > PTRACERS_names(62)= 'c45',
(PID.TID 0000.0001) > PTRACERS_names(63)= 'c46',
(PID.TID 0000.0001) > PTRACERS_names(64)= 'c47',
(PID.TID 0000.0001) > PTRACERS_names(65)= 'c48',
(PID.TID 0000.0001) > PTRACERS_names(66)= 'c49',
(PID.TID 0000.0001) > PTRACERS_names(67)= 'c50',
(PID.TID 0000.0001) > PTRACERS_names(68)= 'c51',
(PID.TID 0000.0001) > PTRACERS_names(69)= 'c52',
(PID.TID 0000.0001) > PTRACERS_names(70)= 'c53',
(PID.TID 0000.0001) > PTRACERS_names(71)= 'c54',
(PID.TID 0000.0001) > PTRACERS_names(72)= 'c55',
(PID.TID 0000.0001) > PTRACERS_names(73)= 'c56',
(PID.TID 0000.0001) > PTRACERS_names(74)= 'c57',
(PID.TID 0000.0001) > PTRACERS_names(75)= 'c58',
(PID.TID 0000.0001) > PTRACERS_names(76)= 'c59',
(PID.TID 0000.0001) > PTRACERS_names(77)= 'c60',
(PID.TID 0000.0001) > PTRACERS_names(78)= 'c61',
(PID.TID 0000.0001) > PTRACERS_names(79)= 'c62',
(PID.TID 0000.0001) > PTRACERS_names(80)= 'c63',
(PID.TID 0000.0001) > PTRACERS_names(81)= 'c64',
(PID.TID 0000.0001) > PTRACERS_names(82)= 'c65',
(PID.TID 0000.0001) > PTRACERS_names(83)= 'c66',
(PID.TID 0000.0001) > PTRACERS_names(84)= 'c67',
(PID.TID 0000.0001) > PTRACERS_names(85)= 'c68',
(PID.TID 0000.0001) > PTRACERS_names(86)= 'c69',
(PID.TID 0000.0001) > PTRACERS_names(87)= 'c70',
(PID.TID 0000.0001) > PTRACERS_names(88)= 'c71',
(PID.TID 0000.0001) > PTRACERS_names(89)= 'c72',
(PID.TID 0000.0001) > PTRACERS_names(90)= 'c73',
(PID.TID 0000.0001) > PTRACERS_names(91)= 'c74',
(PID.TID 0000.0001) > PTRACERS_names(92)= 'c75',
(PID.TID 0000.0001) > PTRACERS_names(93)= 'c76',
(PID.TID 0000.0001) > PTRACERS_names(94)= 'c77',
(PID.TID 0000.0001) > PTRACERS_names(95)= 'c78',
(PID.TID 0000.0001) > PTRACERS_names(96)= 'zc1',
(PID.TID 0000.0001) > PTRACERS_names(97)= 'zc2',
(PID.TID 0000.0001) >#
(PID.TID 0000.0001) > PTRACERS_units(1)='mmol C/m^3'
(PID.TID 0000.0001) > PTRACERS_units(2)='mmol N/m^3'
(PID.TID 0000.0001) > PTRACERS_units(3)='mmol N/m^3'
(PID.TID 0000.0001) > PTRACERS_units(4)='mmol N/m^3'
(PID.TID 0000.0001) > PTRACERS_units(5)='mmol P/m^3'
(PID.TID 0000.0001) > PTRACERS_units(6)='mmol Si/m^3'
(PID.TID 0000.0001) > PTRACERS_units(7)='mmol Fe/m^3'
(PID.TID 0000.0001) > PTRACERS_units(8)='mmol C/m^3'
(PID.TID 0000.0001) > PTRACERS_units(9)='mmol N/m^3'
(PID.TID 0000.0001) > PTRACERS_units(10)='mmol P/m^3'
(PID.TID 0000.0001) > PTRACERS_units(11)='mmol Fe/m^3'
(PID.TID 0000.0001) > PTRACERS_units(12)='mmol C/m^3'
(PID.TID 0000.0001) > PTRACERS_units(13)='mmol N/m^3'
(PID.TID 0000.0001) > PTRACERS_units(14)='mmol P/m^3'
(PID.TID 0000.0001) > PTRACERS_units(15)='mmol Si/m^3'
(PID.TID 0000.0001) > PTRACERS_units(16)='mmol Fe/m^3'
(PID.TID 0000.0001) > PTRACERS_units(17)='mmol C/m^3'
(PID.TID 0000.0001) > PTRACERS_units(18:97)=80*'mmol C/m^3'
(PID.TID 0000.0001) >#
(PID.TID 0000.0001) > /
(PID.TID 0000.0001) 
(PID.TID 0000.0001)  PTRACERS_READPARMS: finished reading data.ptracers
(PID.TID 0000.0001)  GCHEM_READPARMS: opening data.gchem
(PID.TID 0000.0001)  OPEN_COPY_DATA_FILE: opening file data.gchem
(PID.TID 0000.0001) // =======================================================
(PID.TID 0000.0001) // Parameter file "data.gchem"
(PID.TID 0000.0001) // =======================================================
(PID.TID 0000.0001) > &GCHEM_PARM01
(PID.TID 0000.0001) > useGUD=.TRUE.,
(PID.TID 0000.0001) > nsubtime=1,
(PID.TID 0000.0001) ># now set in data.gud
(PID.TID 0000.0001) >#gchem_ForcingPeriod=2592000.,
(PID.TID 0000.0001) >#gchem_ForcingCycle=31104000.,
(PID.TID 0000.0001) > /
(PID.TID 0000.0001) 
(PID.TID 0000.0001)  GCHEM_READPARMS: finished reading data.gchem
(PID.TID 0000.0001)  GUD_READPARMS: opening data.gud
(PID.TID 0000.0001)  OPEN_COPY_DATA_FILE: opening file data.gud
(PID.TID 0000.0001) // =======================================================
(PID.TID 0000.0001) // Parameter file "data.gud"
(PID.TID 0000.0001) // =======================================================
(PID.TID 0000.0001) > &GUD_FORCING_PARAMS
(PID.TID 0000.0001) >  useGudYearlyFields= .TRUE.,
(PID.TID 0000.0001) > /
(PID.TID 0000.0001) > &GUD_EXF_PARAMS
(PID.TID 0000.0001) ># iceFile='gud/nasa_icefraction_mth-2d.bin',
(PID.TID 0000.0001) >#
(PID.TID 0000.0001) >  ironFile='Fe_const_76x72_12_',
(PID.TID 0000.0001) ># emulate silly 30-day period from monod
(PID.TID 0000.0001) >  ironStartDate1=19920116,
(PID.TID 0000.0001) >  ironStartDate2=000000,
(PID.TID 0000.0001) >  ironPeriod= 2592000.,
(PID.TID 0000.0001) >  gud_inscal_iron= 1000.,
(PID.TID 0000.0001) >#
(PID.TID 0000.0001) ># gud_PARFile='gud/par_ecco.bin_mth-2d.bin',
(PID.TID 0000.0001) ># gud_nutWVelFile='',
(PID.TID 0000.0001) > /
(PID.TID 0000.0001) > &GUD_INTERP_PARAMS
(PID.TID 0000.0001) >  iron_interpMethod= 0,
(PID.TID 0000.0001) > /
(PID.TID 0000.0001) > &GUD_PARAMS
(PID.TID 0000.0001) >  gud_seed=11231,
(PID.TID 0000.0001) >#  gud_read_phos=T,
(PID.TID 0000.0001) >  PARmin= 1.0,
(PID.TID 0000.0001) > /
(PID.TID 0000.0001) > &GUD_RADTRANS_PARAMS
(PID.TID 0000.0001) > /
(PID.TID 0000.0001) > &GUD_TRAIT_PARAMS
(PID.TID 0000.0001) > diatom_growfac= 1.0,
(PID.TID 0000.0001) > /
(PID.TID 0000.0001) > &GUD_ALLOMETRIC_PARAMS
(PID.TID 0000.0001) > /
(PID.TID 0000.0001) 
(PID.TID 0000.0001)  ===================================
(PID.TID 0000.0001) 
(PID.TID 0000.0001)  SEAICE_READPARMS: opening data.seaice
(PID.TID 0000.0001)  OPEN_COPY_DATA_FILE: opening file data.seaice
(PID.TID 0000.0001) // =======================================================
(PID.TID 0000.0001) // Parameter file "data.seaice"
(PID.TID 0000.0001) // =======================================================
(PID.TID 0000.0001) ># SEAICE parameters
(PID.TID 0000.0001) > &SEAICE_PARM01
(PID.TID 0000.0001) >      SEAICE_dryIceAlb   = 0.8756,
(PID.TID 0000.0001) >      SEAICE_wetIceAlb   = 0.7856,
(PID.TID 0000.0001) >      SEAICE_drySnowAlb  = 0.9656,
(PID.TID 0000.0001) >      SEAICE_wetSnowAlb  = 0.8256,
(PID.TID 0000.0001) >#      SEAICE_waterAlbedo = 0.2756,
(PID.TID 0000.0001) >      SEAICE_strength    = 2.6780e+04,
(PID.TID 0000.0001) >      OCEAN_drag         = 8.1541e-04,
(PID.TID 0000.0001) >      SEAICE_waterDrag   = 5.3508,
(PID.TID 0000.0001) >      LSR_ERROR          = 1e-13,
(PID.TID 0000.0001) >      SEAICEuseDYNAMICS  = .TRUE.,
(PID.TID 0000.0001) >      HeffFile           = '',
(PID.TID 0000.0001) >#      SEAICE_freeze      = -1.7348,
(PID.TID 0000.0001) >      MIN_ATEMP          = -40.,
(PID.TID 0000.0001) >      MIN_TICE           = -40.,
(PID.TID 0000.0001) >#      SEAICE_clipVelocities = .TRUE.,
(PID.TID 0000.0001) >      SEAICEadvSalt      = .FALSE.,
(PID.TID 0000.0001) >      SEAICEadvSnow      = .TRUE.,
(PID.TID 0000.0001) >      SEAICEuseFlooding  = .TRUE.,
(PID.TID 0000.0001) >      SEAICE_saltFrac    = 0.3,
(PID.TID 0000.0001) >      ICE2WATR           = 0.92,
(PID.TID 0000.0001) >#      SEAICE_deltaTevp   = 1.,
(PID.TID 0000.0001) >#      SEAICE_evpTauRelax = 3600.,
(PID.TID 0000.0001) >#      SEAICE_evpDampC    = 615.,
(PID.TID 0000.0001) ># for backward compatibility only:
(PID.TID 0000.0001) > SEAICE_cpAir       = 1.0039560439560439e+03,
(PID.TID 0000.0001) ># SEAICE_lhSublim    = 2.8340219780219775e+06,
(PID.TID 0000.0001) > SEAICE_lhEvap      = 2.5000000000000000e+06,
(PID.TID 0000.0001) > SEAICE_lhFusion    =  3.340219780219775e+05,
(PID.TID 0000.0001) > SEAICE_rhoAir      = 1.3E0,
(PID.TID 0000.0001) >      SEAICEuseFluxForm  = .FALSE.,
(PID.TID 0000.0001) >      DIFF1 = 0.004,
(PID.TID 0000.0001) ># For backward compatibility only:
(PID.TID 0000.0001) ># emissivities should be inherited from exf and setting them here does
(PID.TID 0000.0001) ># not set a good example
(PID.TID 0000.0001) > SEAICE_snow_emiss     = 0.97001763668430343479,
(PID.TID 0000.0001) > SEAICE_ice_emiss      = 0.97001763668430343479,
(PID.TID 0000.0001) >#
(PID.TID 0000.0001) >#- to reproduce old results with former #defined SEAICE_SOLVE4TEMP_LEGACY code
(PID.TID 0000.0001) > useMaykutSatVapPoly = .TRUE.,
(PID.TID 0000.0001) > postSolvTempIter  =  0,
(PID.TID 0000.0001) >#
(PID.TID 0000.0001) ># more compatibility settings
(PID.TID 0000.0001) > SEAICE_frazilFrac  = 1.,
(PID.TID 0000.0001) > SEAICE_mcPheePiston = .00833333333333333333,
(PID.TID 0000.0001) > SEAICE_multDim     = 7,
(PID.TID 0000.0001) > /
(PID.TID 0000.0001) 
(PID.TID 0000.0001)  SEAICE_READPARMS: finished reading data.seaice
(PID.TID 0000.0001)  DIAGNOSTICS_READPARMS: opening data.diagnostics
(PID.TID 0000.0001)  OPEN_COPY_DATA_FILE: opening file data.diagnostics
(PID.TID 0000.0001) // =======================================================
(PID.TID 0000.0001) // Parameter file "data.diagnostics"
(PID.TID 0000.0001) // =======================================================
(PID.TID 0000.0001) ># Gud diagnostics
(PID.TID 0000.0001) ># ==================
(PID.TID 0000.0001) ># PAR                 Photosynthetically active radiation
(PID.TID 0000.0001) ># PP                  Primary production
(PID.TID 0000.0001) ># Nfix                Nitrogen fixation
(PID.TID 0000.0001) ># Rstar01             Rstar^PO4 of Phy01
(PID.TID 0000.0001) ># Diver1              # Phy species over absolute threshold'
(PID.TID 0000.0001) ># Diver2              # Phy species over threshold for proportion of biomass'
(PID.TID 0000.0001) ># Diver3              # Phy species constituting bulk of biomass'
(PID.TID 0000.0001) ># Diver4              # Phy species over threshold for ratio to maximum species'
(PID.TID 0000.0001) >#
(PID.TID 0000.0001) > &diagnostics_list
(PID.TID 0000.0001) >#
(PID.TID 0000.0001) >  frequency(1) = 1200.,
(PID.TID 0000.0001) >  fields( 1,1) = 'TRAC01  ',
(PID.TID 0000.0001) >  fields( 2,1) = 'TRAC02  ',
(PID.TID 0000.0001) >  fields( 3,1) = 'TRAC03  ',
(PID.TID 0000.0001) >  fields( 4,1) = 'TRAC04  ',
(PID.TID 0000.0001) >  fields( 5,1) = 'TRAC05  ',
(PID.TID 0000.0001) >  fields( 6,1) = 'TRAC06  ',
(PID.TID 0000.0001) >  fields( 7,1) = 'TRAC07  ',
(PID.TID 0000.0001) >  fields( 8,1) = 'TRAC08  ',
(PID.TID 0000.0001) >  fields( 9,1) = 'TRAC09  ',
(PID.TID 0000.0001) >  fields(10,1) = 'TRAC10  ',
(PID.TID 0000.0001) >  fields(11,1) = 'TRAC11  ',
(PID.TID 0000.0001) >  fields(12,1) = 'TRAC12  ',
(PID.TID 0000.0001) >  fields(13,1) = 'TRAC13  ',
(PID.TID 0000.0001) >  fields(14,1) = 'TRAC14  ',
(PID.TID 0000.0001) >  fields(15,1) = 'TRAC15  ',
(PID.TID 0000.0001) >  fields(16,1) = 'TRAC16  ',
(PID.TID 0000.0001) >  fields(17,1) = 'TRAC17  ',
(PID.TID 0000.0001) >  fields(18,1) = 'TRAC18  ',
(PID.TID 0000.0001) >  fields(19,1) = 'TRAC19  ',
(PID.TID 0000.0001) >  fields(20,1) = 'TRAC20  ',
(PID.TID 0000.0001) >  fields(21,1) = 'TRAC21  ',
(PID.TID 0000.0001) >  fields(22,1) = 'TRAC22  ',
(PID.TID 0000.0001) >  fields(23,1) = 'TRAC23  ',
(PID.TID 0000.0001) >  fields(24,1) = 'TRAC24  ',
(PID.TID 0000.0001) >  fields(25,1) = 'TRAC25  ',
(PID.TID 0000.0001) >  fields(26,1) = 'TRAC26  ',
(PID.TID 0000.0001) >  fields(27,1) = 'TRAC27  ',
(PID.TID 0000.0001) >  fields(28,1) = 'TRAC28  ',
(PID.TID 0000.0001) >  fields(29,1) = 'TRAC29  ',
(PID.TID 0000.0001) >  fields(30,1) = 'TRAC30  ',
(PID.TID 0000.0001) >  fields(31,1) = 'TRAC31  ',
(PID.TID 0000.0001) >  fields(32,1) = 'TRAC32  ',
(PID.TID 0000.0001) >  fields(33,1) = 'TRAC33  ',
(PID.TID 0000.0001) >  fields(34,1) = 'TRAC34  ',
(PID.TID 0000.0001) >  fields(35,1) = 'TRAC35  ',
(PID.TID 0000.0001) >  fields(36,1) = 'TRAC36  ',
(PID.TID 0000.0001) >  fields(37,1) = 'TRAC37  ',
(PID.TID 0000.0001) >  fields(38,1) = 'TRAC38  ',
(PID.TID 0000.0001) >  fields(39,1) = 'TRAC39  ',
(PID.TID 0000.0001) >  fields(40,1) = 'TRAC40  ',
(PID.TID 0000.0001) >  fields(41,1) = 'TRAC41  ',
(PID.TID 0000.0001) >  fields(42,1) = 'TRAC42  ',
(PID.TID 0000.0001) >  fields(43,1) = 'TRAC43  ',
(PID.TID 0000.0001) >  fields(44,1) = 'TRAC44  ',
(PID.TID 0000.0001) >  fields(45,1) = 'TRAC45  ',
(PID.TID 0000.0001) >  fields(46,1) = 'TRAC46  ',
(PID.TID 0000.0001) >  fields(47,1) = 'TRAC47  ',
(PID.TID 0000.0001) >  fields(48,1) = 'TRAC48  ',
(PID.TID 0000.0001) >  fields(49,1) = 'TRAC49  ',
(PID.TID 0000.0001) >  fields(50,1) = 'TRAC50  ',
(PID.TID 0000.0001) >  fields(51,1) = 'TRAC51  ',
(PID.TID 0000.0001) >  fields(52,1) = 'TRAC52  ',
(PID.TID 0000.0001) >  fields(53,1) = 'TRAC53  ',
(PID.TID 0000.0001) >  fields(54,1) = 'TRAC54  ',
(PID.TID 0000.0001) >  fields(55,1) = 'TRAC55  ',
(PID.TID 0000.0001) >  fields(56,1) = 'TRAC56  ',
(PID.TID 0000.0001) >  fields(57,1) = 'TRAC57  ',
(PID.TID 0000.0001) >  fields(58,1) = 'TRAC58  ',
(PID.TID 0000.0001) >  fields(59,1) = 'TRAC59  ',
(PID.TID 0000.0001) >  fields(60,1) = 'TRAC60  ',
(PID.TID 0000.0001) >  fields(61,1) = 'TRAC61  ',
(PID.TID 0000.0001) >  fields(62,1) = 'TRAC62  ',
(PID.TID 0000.0001) >  fields(63,1) = 'TRAC63  ',
(PID.TID 0000.0001) >  fields(64,1) = 'TRAC64  ',
(PID.TID 0000.0001) >  fields(65,1) = 'TRAC65  ',
(PID.TID 0000.0001) >  fields(66,1) = 'TRAC66  ',
(PID.TID 0000.0001) >  fields(67,1) = 'TRAC67  ',
(PID.TID 0000.0001) >  fields(68,1) = 'TRAC68  ',
(PID.TID 0000.0001) >  fields(69,1) = 'TRAC69  ',
(PID.TID 0000.0001) >  fields(70,1) = 'TRAC70  ',
(PID.TID 0000.0001) >  fields(71,1) = 'TRAC71  ',
(PID.TID 0000.0001) >  fields(72,1) = 'TRAC72  ',
(PID.TID 0000.0001) >  fields(73,1) = 'TRAC73  ',
(PID.TID 0000.0001) >  fields(74,1) = 'TRAC74  ',
(PID.TID 0000.0001) >  fields(75,1) = 'TRAC75  ',
(PID.TID 0000.0001) >  fields(76,1) = 'TRAC76  ',
(PID.TID 0000.0001) >  fields(77,1) = 'TRAC77  ',
(PID.TID 0000.0001) >  fields(78,1) = 'TRAC78  ',
(PID.TID 0000.0001) >  fields(79,1) = 'TRAC79  ',
(PID.TID 0000.0001) >  fields(80,1) = 'TRAC80  ',
(PID.TID 0000.0001) >  fields(81,1) = 'TRAC81  ',
(PID.TID 0000.0001) >  fields(82,1) = 'TRAC82  ',
(PID.TID 0000.0001) >  fields(83,1) = 'TRAC83  ',
(PID.TID 0000.0001) >  fields(84,1) = 'TRAC84  ',
(PID.TID 0000.0001) >  fields(85,1) = 'TRAC85  ',
(PID.TID 0000.0001) >  fields(86,1) = 'TRAC86  ',
(PID.TID 0000.0001) >  fields(87,1) = 'TRAC87  ',
(PID.TID 0000.0001) >  fields(88,1) = 'TRAC88  ',
(PID.TID 0000.0001) >  fields(89,1) = 'TRAC89  ',
(PID.TID 0000.0001) >  fields(90,1) = 'TRAC90  ',
(PID.TID 0000.0001) >  fields(91,1) = 'TRAC91  ',
(PID.TID 0000.0001) >  fields(92,1) = 'TRAC92  ',
(PID.TID 0000.0001) >  fields(93,1) = 'TRAC93  ',
(PID.TID 0000.0001) >  fields(94,1) = 'TRAC94  ',
(PID.TID 0000.0001) >  fields(95,1) = 'TRAC95  ',
(PID.TID 0000.0001) >  fields(96,1) = 'TRAC96  ',
(PID.TID 0000.0001) >  fields(97,1) = 'TRAC97  ',
(PID.TID 0000.0001) >  filename( 1) = 'gud',
(PID.TID 0000.0001) >#
(PID.TID 0000.0001) > /
(PID.TID 0000.0001) >
(PID.TID 0000.0001) ># Parameter for Diagnostics of per level statistics:
(PID.TID 0000.0001) >#-----------------
(PID.TID 0000.0001) ># for each output-stream:
(PID.TID 0000.0001) >#  stat_fname(n) : prefix of the output file name (only 8.c long) for
(PID.TID 0000.0001) >#outp.stream n
(PID.TID 0000.0001) >#  stat_freq(n):< 0 : write snap-shot output every |stat_freq| seconds
(PID.TID 0000.0001) >#               > 0 : write time-average output every stat_freq seconds
(PID.TID 0000.0001) >#  stat_phase(n)    : write at time = stat_phase + multiple of |stat_freq|
(PID.TID 0000.0001) >#  stat_region(:,n) : list of "regions" (default: 1 region only=global)
(PID.TID 0000.0001) >#  stat_fields(:,n) : list of diagnostics fields (8.c) (see
(PID.TID 0000.0001) >#"available_diagnostics.log"
(PID.TID 0000.0001) >#                 file for the list of all available diag. in this particular
(PID.TID 0000.0001) >#config)
(PID.TID 0000.0001) >#-----------------
(PID.TID 0000.0001) > &DIAG_STATIS_PARMS
(PID.TID 0000.0001) > diagst_mnc=.FALSE.,
(PID.TID 0000.0001) >#     stat_freq(1:21)= 21*3600.,
(PID.TID 0000.0001) >#    stat_phase(1:21)= 21*0.,
(PID.TID 0000.0001) ># stat_fields(1,1)= 'TRAC01  '
(PID.TID 0000.0001) ># stat_fields(1,2)= 'TRAC02  '
(PID.TID 0000.0001) ># stat_fields(1,3)= 'TRAC03  '
(PID.TID 0000.0001) ># stat_fields(1,4)= 'TRAC04  '
(PID.TID 0000.0001) ># stat_fields(1,5)= 'TRAC05  '
(PID.TID 0000.0001) ># stat_fields(1,6)= 'TRAC06  '
(PID.TID 0000.0001) ># stat_fields(1,7)= 'TRAC07  '
(PID.TID 0000.0001) ># stat_fields(1,8)= 'TRAC08  '
(PID.TID 0000.0001) ># stat_fields(1,9)= 'TRAC09  '
(PID.TID 0000.0001) ># stat_fields(1,10)= 'TRAC10  '
(PID.TID 0000.0001) ># stat_fields(1,11)= 'TRAC11  '
(PID.TID 0000.0001) ># stat_fields(1,12)= 'TRAC12  '
(PID.TID 0000.0001) ># stat_fields(1,13)= 'TRAC13  '
(PID.TID 0000.0001) ># stat_fields(1,14)= 'TRAC14  '
(PID.TID 0000.0001) ># stat_fields(1,15)= 'TRAC15  '
(PID.TID 0000.0001) ># stat_fields(1,16)= 'TRAC16  '
(PID.TID 0000.0001) ># stat_fields(1,17)= 'TRAC17  '
(PID.TID 0000.0001) ># stat_fields(1,18)= 'TRAC18  '
(PID.TID 0000.0001) ># stat_fields(1,19)= 'TRAC19  '
(PID.TID 0000.0001) ># stat_fields(1,20)= 'TRAC20  '
(PID.TID 0000.0001) ># stat_fields(1,21)= 'TRAC21  '
(PID.TID 0000.0001) >#    stat_fname(1)= 'stats/DIC',
(PID.TID 0000.0001) >#    stat_fname(2)= 'stats/NH4',
(PID.TID 0000.0001) >#    stat_fname(3)= 'stats/NO2',
(PID.TID 0000.0001) >#    stat_fname(4)= 'stats/NO3',
(PID.TID 0000.0001) >#    stat_fname(5)= 'stats/PO4',
(PID.TID 0000.0001) >#    stat_fname(6)= 'stats/SiO2',
(PID.TID 0000.0001) >#    stat_fname(7)= 'stats/FeT',
(PID.TID 0000.0001) >#    stat_fname(8)= 'stats/DOC',
(PID.TID 0000.0001) >#    stat_fname(9)= 'stats/DON',
(PID.TID 0000.0001) >#    stat_fname(10)= 'stats/DOP',
(PID.TID 0000.0001) >#    stat_fname(11)= 'stats/DOFe',
(PID.TID 0000.0001) >#    stat_fname(12)= 'stats/POC',
(PID.TID 0000.0001) >#    stat_fname(13)= 'stats/PON',
(PID.TID 0000.0001) >#    stat_fname(14)= 'stats/POP',
(PID.TID 0000.0001) >#    stat_fname(15)= 'stats/POSi',
(PID.TID 0000.0001) >#    stat_fname(16)= 'stats/POFe',
(PID.TID 0000.0001) >#    stat_fname(17)= 'stats/PIC',
(PID.TID 0000.0001) >#    stat_fname(18)= 'stats/c1',
(PID.TID 0000.0001) >#    stat_fname(19)= 'stats/c2',
(PID.TID 0000.0001) >#    stat_fname(20)= 'stats/c3',
(PID.TID 0000.0001) >#    stat_fname(21)= 'stats/c4',
(PID.TID 0000.0001) > /
(PID.TID 0000.0001) 
(PID.TID 0000.0001) S/R DIAGNOSTICS_READPARMS, read namelist "diagnostics_list": start
(PID.TID 0000.0001) S/R DIAGNOSTICS_READPARMS, read namelist "diagnostics_list": OK
(PID.TID 0000.0001) S/R DIAGNOSTICS_READPARMS, read namelist "DIAG_STATIS_PARMS": start
(PID.TID 0000.0001) S/R DIAGNOSTICS_READPARMS, read namelist "DIAG_STATIS_PARMS": OK
(PID.TID 0000.0001)  DIAGNOSTICS_READPARMS: global parameter summary:
(PID.TID 0000.0001)  dumpAtLast = /* always write time-ave diags at the end */
(PID.TID 0000.0001)                   F
(PID.TID 0000.0001)     ;
(PID.TID 0000.0001)  diag_mnc =   /* write NetCDF output files */
(PID.TID 0000.0001)                   T
(PID.TID 0000.0001)     ;
(PID.TID 0000.0001)  useMissingValue = /* put MissingValue where mask = 0 */
(PID.TID 0000.0001)                   F
(PID.TID 0000.0001)     ;
(PID.TID 0000.0001)  diagCG_maxIters = /* max number of iters in diag_cg2d */
(PID.TID 0000.0001)                     100
(PID.TID 0000.0001)     ;
(PID.TID 0000.0001)  diagCG_resTarget = /* residual target for diag_cg2d */
(PID.TID 0000.0001)                 1.000000000000000E-05
(PID.TID 0000.0001)     ;
(PID.TID 0000.0001) -----------------------------------------------------
(PID.TID 0000.0001)  DIAGNOSTICS_READPARMS: active diagnostics summary:
(PID.TID 0000.0001) -----------------------------------------------------
(PID.TID 0000.0001) Creating Output Stream: gud
(PID.TID 0000.0001) Output Frequency:       1200.000000 ; Phase:           0.000000
(PID.TID 0000.0001)  Averaging Freq.:       1200.000000 , Phase:           0.000000 , Cycle:   1
(PID.TID 0000.0001)  missing value: -9.990000000000E+02
(PID.TID 0000.0001)  Levels:    will be set later
(PID.TID 0000.0001)  Fields:    TRAC01   TRAC02   TRAC03   TRAC04   TRAC05   TRAC06   TRAC07   TRAC08   TRAC09   TRAC10
(PID.TID 0000.0001)  Fields:    TRAC11   TRAC12   TRAC13   TRAC14   TRAC15   TRAC16   TRAC17   TRAC18   TRAC19   TRAC20
(PID.TID 0000.0001)  Fields:    TRAC21   TRAC22   TRAC23   TRAC24   TRAC25   TRAC26   TRAC27   TRAC28   TRAC29   TRAC30
(PID.TID 0000.0001)  Fields:    TRAC31   TRAC32   TRAC33   TRAC34   TRAC35   TRAC36   TRAC37   TRAC38   TRAC39   TRAC40
(PID.TID 0000.0001)  Fields:    TRAC41   TRAC42   TRAC43   TRAC44   TRAC45   TRAC46   TRAC47   TRAC48   TRAC49   TRAC50
(PID.TID 0000.0001)  Fields:    TRAC51   TRAC52   TRAC53   TRAC54   TRAC55   TRAC56   TRAC57   TRAC58   TRAC59   TRAC60
(PID.TID 0000.0001)  Fields:    TRAC61   TRAC62   TRAC63   TRAC64   TRAC65   TRAC66   TRAC67   TRAC68   TRAC69   TRAC70
(PID.TID 0000.0001)  Fields:    TRAC71   TRAC72   TRAC73   TRAC74   TRAC75   TRAC76   TRAC77   TRAC78   TRAC79   TRAC80
(PID.TID 0000.0001)  Fields:    TRAC81   TRAC82   TRAC83   TRAC84   TRAC85   TRAC86   TRAC87   TRAC88   TRAC89   TRAC90
(PID.TID 0000.0001)  Fields:    TRAC91   TRAC92   TRAC93   TRAC94   TRAC95   TRAC96   TRAC97
(PID.TID 0000.0001) -----------------------------------------------------
(PID.TID 0000.0001)  DIAGNOSTICS_READPARMS: statistics diags. summary:
(PID.TID 0000.0001) -----------------------------------------------------
(PID.TID 0000.0001) 
(PID.TID 0000.0001) SET_PARMS: done
(PID.TID 0000.0001) Enter INI_VERTICAL_GRID: setInterFDr=    T ; setCenterDr=    F
(PID.TID 0000.0001)  MDS_READ_FIELD: opening global file: LONC.bin
(PID.TID 0000.0001)  MDS_READ_FIELD: opening global file: LATC.bin
(PID.TID 0000.0001)  MDS_READ_FIELD: opening global file: DXF.bin
(PID.TID 0000.0001)  MDS_READ_FIELD: opening global file: DYF.bin
(PID.TID 0000.0001)  MDS_READ_FIELD: opening global file: RA.bin
(PID.TID 0000.0001)  MDS_READ_FIELD: opening global file: LONG.bin
(PID.TID 0000.0001)  MDS_READ_FIELD: opening global file: LATG.bin
(PID.TID 0000.0001)  MDS_READ_FIELD: opening global file: DXV.bin
(PID.TID 0000.0001)  MDS_READ_FIELD: opening global file: DYU.bin
(PID.TID 0000.0001)  MDS_READ_FIELD: opening global file: RAZ.bin
(PID.TID 0000.0001)  MDS_READ_FIELD: opening global file: DXC.bin
(PID.TID 0000.0001)  MDS_READ_FIELD: opening global file: DYC.bin
(PID.TID 0000.0001)  MDS_READ_FIELD: opening global file: RAW.bin
(PID.TID 0000.0001)  MDS_READ_FIELD: opening global file: RAS.bin
(PID.TID 0000.0001)  MDS_READ_FIELD: opening global file: DXG.bin
(PID.TID 0000.0001)  MDS_READ_FIELD: opening global file: DYG.bin
(PID.TID 0000.0001) %MON XC_max                       =   3.4323280334472656E+01
(PID.TID 0000.0001) %MON XC_min                       =   6.2812995910644531E+00
(PID.TID 0000.0001) %MON XC_mean                      =   1.8285267813948163E+01
(PID.TID 0000.0001) %MON XC_sd                        =   6.3900599945909500E+00
(PID.TID 0000.0001) %MON XG_max                       =   3.4363361358642578E+01
(PID.TID 0000.0001) %MON XG_min                       =   6.3874454498291016E+00
(PID.TID 0000.0001) %MON XG_mean                      =   1.8373648876945175E+01
(PID.TID 0000.0001) %MON XG_sd                        =   6.3700484752252073E+00
(PID.TID 0000.0001) %MON DXC_max                      =   2.2403076171875000E+04
(PID.TID 0000.0001) %MON DXC_min                      =   1.8505916015625000E+04
(PID.TID 0000.0001) %MON DXC_mean                     =   2.0203672926874886E+04
(PID.TID 0000.0001) %MON DXC_sd                       =   9.5458170268745039E+02
(PID.TID 0000.0001) %MON DXF_max                      =   2.2370343750000000E+04
(PID.TID 0000.0001) %MON DXF_min                      =   1.8493386718750000E+04
(PID.TID 0000.0001) %MON DXF_mean                     =   2.0182404881527549E+04
(PID.TID 0000.0001) %MON DXF_sd                       =   9.4946222069420321E+02
(PID.TID 0000.0001) %MON DXG_max                      =   2.2367550781250000E+04
(PID.TID 0000.0001) %MON DXG_min                      =   1.8487599609375000E+04
(PID.TID 0000.0001) %MON DXG_mean                     =   2.0177259786683913E+04
(PID.TID 0000.0001) %MON DXG_sd                       =   9.4896516606817841E+02
(PID.TID 0000.0001) %MON DXV_max                      =   2.2400273437500000E+04
(PID.TID 0000.0001) %MON DXV_min                      =   1.8500103515625000E+04
(PID.TID 0000.0001) %MON DXV_mean                     =   2.0198506532189440E+04
(PID.TID 0000.0001) %MON DXV_sd                       =   9.5408286863331898E+02
(PID.TID 0000.0001) %MON YC_max                       =   6.7494171142578125E+01
(PID.TID 0000.0001) %MON YC_min                       =   5.1496150970458984E+01
(PID.TID 0000.0001) %MON YC_mean                      =   5.9557142692699763E+01
(PID.TID 0000.0001) %MON YC_sd                        =   3.8956559034089806E+00
(PID.TID 0000.0001) %MON YG_max                       =   6.7396972656250000E+01
(PID.TID 0000.0001) %MON YG_min                       =   5.1380382537841797E+01
(PID.TID 0000.0001) %MON YG_mean                      =   5.9448751095442738E+01
(PID.TID 0000.0001) %MON YG_sd                        =   3.8981480636126395E+00
(PID.TID 0000.0001) %MON DYC_max                      =   1.7253792968750000E+04
(PID.TID 0000.0001) %MON DYC_min                      =   1.6167729492187500E+04
(PID.TID 0000.0001) %MON DYC_mean                     =   1.6590043869643181E+04
(PID.TID 0000.0001) %MON DYC_sd                       =   2.2883025615362985E+02
(PID.TID 0000.0001) %MON DYF_max                      =   1.7247535156250000E+04
(PID.TID 0000.0001) %MON DYF_min                      =   1.6166898437500000E+04
(PID.TID 0000.0001) %MON DYF_mean                     =   1.6587223710623399E+04
(PID.TID 0000.0001) %MON DYF_sd                       =   2.2779671061984945E+02
(PID.TID 0000.0001) %MON DYG_max                      =   1.7242103515625000E+04
(PID.TID 0000.0001) %MON DYG_min                      =   1.6164107421875000E+04
(PID.TID 0000.0001) %MON DYG_mean                     =   1.6582914334659687E+04
(PID.TID 0000.0001) %MON DYG_sd                       =   2.2730275857503943E+02
(PID.TID 0000.0001) %MON DYU_max                      =   1.7248339843750000E+04
[...]
 Computing Diagnostic #   1120  TRAC71       Counter:       1   Parms: SMR     MR      
 Computing Diagnostic #   1133  TRAC72       Counter:       1   Parms: SMR     MR      
 Computing Diagnostic #   1146  TRAC73       Counter:       1   Parms: SMR     MR      
 Computing Diagnostic #   1159  TRAC74       Counter:       1   Parms: SMR     MR      
 Computing Diagnostic #   1172  TRAC75       Counter:       1   Parms: SMR     MR      
 Computing Diagnostic #   1185  TRAC76       Counter:       1   Parms: SMR     MR      
 Computing Diagnostic #   1198  TRAC77       Counter:       1   Parms: SMR     MR      
 Computing Diagnostic #   1211  TRAC78       Counter:       1   Parms: SMR     MR      
 Computing Diagnostic #   1224  TRAC79       Counter:       1   Parms: SMR     MR      
 Computing Diagnostic #   1237  TRAC80       Counter:       1   Parms: SMR     MR      
 Computing Diagnostic #   1250  TRAC81       Counter:       1   Parms: SMR     MR      
 Computing Diagnostic #   1263  TRAC82       Counter:       1   Parms: SMR     MR      
 Computing Diagnostic #   1276  TRAC83       Counter:       1   Parms: SMR     MR      
 Computing Diagnostic #   1289  TRAC84       Counter:       1   Parms: SMR     MR      
 Computing Diagnostic #   1302  TRAC85       Counter:       1   Parms: SMR     MR      
 Computing Diagnostic #   1315  TRAC86       Counter:       1   Parms: SMR     MR      
 Computing Diagnostic #   1328  TRAC87       Counter:       1   Parms: SMR     MR      
 Computing Diagnostic #   1341  TRAC88       Counter:       1   Parms: SMR     MR      
 Computing Diagnostic #   1354  TRAC89       Counter:       1   Parms: SMR     MR      
 Computing Diagnostic #   1367  TRAC90       Counter:       1   Parms: SMR     MR      
 Computing Diagnostic #   1380  TRAC91       Counter:       1   Parms: SMR     MR      
 Computing Diagnostic #   1393  TRAC92       Counter:       1   Parms: SMR     MR      
 Computing Diagnostic #   1406  TRAC93       Counter:       1   Parms: SMR     MR      
 Computing Diagnostic #   1419  TRAC94       Counter:       1   Parms: SMR     MR      
 Computing Diagnostic #   1432  TRAC95       Counter:       1   Parms: SMR     MR      
 Computing Diagnostic #   1445  TRAC96       Counter:       1   Parms: SMR     MR      
 Computing Diagnostic #   1458  TRAC97       Counter:       1   Parms: SMR     MR      
(PID.TID 0000.0001) %CHECKPOINT    188392 ckptA
(PID.TID 0000.0001)   Seconds in section "ALL                    [THE_MODEL_MAIN]":
(PID.TID 0000.0001)           User time:   80.989999999999995
(PID.TID 0000.0001)         System time:   5.9100000000000001
(PID.TID 0000.0001)     Wall clock time:   89.465626955032349
(PID.TID 0000.0001)          No. starts:           1
(PID.TID 0000.0001)           No. stops:           1
(PID.TID 0000.0001)   Seconds in section "INITIALISE_FIXED       [THE_MODEL_MAIN]":
(PID.TID 0000.0001)           User time:   1.1300000000000001
(PID.TID 0000.0001)         System time:   4.0000000000000001E-002
(PID.TID 0000.0001)     Wall clock time:   1.1974041461944580
(PID.TID 0000.0001)          No. starts:           1
(PID.TID 0000.0001)           No. stops:           1
(PID.TID 0000.0001)   Seconds in section "THE_MAIN_LOOP          [THE_MODEL_MAIN]":
(PID.TID 0000.0001)           User time:   79.850000000000009
(PID.TID 0000.0001)         System time:   5.7000000000000002
(PID.TID 0000.0001)     Wall clock time:   86.958061933517456
(PID.TID 0000.0001)          No. starts:           1
(PID.TID 0000.0001)           No. stops:           1
(PID.TID 0000.0001)   Seconds in section "INITIALISE_VARIA    [THE_MAIN_LOOP]":
(PID.TID 0000.0001)           User time:   3.4900000000000002
(PID.TID 0000.0001)         System time:   2.5400000000000000
(PID.TID 0000.0001)     Wall clock time:   6.2205488681793213
(PID.TID 0000.0001)          No. starts:           1
(PID.TID 0000.0001)           No. stops:           1
(PID.TID 0000.0001)   Seconds in section "MAIN LOOP           [THE_MAIN_LOOP]":
(PID.TID 0000.0001)           User time:   76.359999999999999
(PID.TID 0000.0001)         System time:   3.1600000000000001
(PID.TID 0000.0001)     Wall clock time:   80.737477064132690
(PID.TID 0000.0001)          No. starts:           1
(PID.TID 0000.0001)           No. stops:           1
(PID.TID 0000.0001)   Seconds in section "MAIN_DO_LOOP        [THE_MAIN_LOOP]":
(PID.TID 0000.0001)           User time:   76.360000000000014
(PID.TID 0000.0001)         System time:   3.1600000000000001
(PID.TID 0000.0001)     Wall clock time:   80.737417936325073
(PID.TID 0000.0001)          No. starts:           4
(PID.TID 0000.0001)           No. stops:           4
(PID.TID 0000.0001)   Seconds in section "FORWARD_STEP        [MAIN_DO_LOOP]":
(PID.TID 0000.0001)           User time:   76.360000000000014
(PID.TID 0000.0001)         System time:   3.1600000000000001
(PID.TID 0000.0001)     Wall clock time:   80.737329959869385
(PID.TID 0000.0001)          No. starts:           4
(PID.TID 0000.0001)           No. stops:           4
(PID.TID 0000.0001)   Seconds in section "DO_STATEVARS_DIAGS  [FORWARD_STEP]":
(PID.TID 0000.0001)           User time:  0.37000000000000455
(PID.TID 0000.0001)         System time:   0.0000000000000000
(PID.TID 0000.0001)     Wall clock time:  0.36786937713623047
(PID.TID 0000.0001)          No. starts:          12
(PID.TID 0000.0001)           No. stops:          12
(PID.TID 0000.0001)   Seconds in section "LOAD_FIELDS_DRIVER  [FORWARD_STEP]":
(PID.TID 0000.0001)           User time:   9.9999999999994316E-002
(PID.TID 0000.0001)         System time:   9.9999999999997868E-003
(PID.TID 0000.0001)     Wall clock time:  0.12661123275756836
(PID.TID 0000.0001)          No. starts:           4
(PID.TID 0000.0001)           No. stops:           4
(PID.TID 0000.0001)   Seconds in section "EXF_GETFORCING     [LOAD_FLDS_DRIVER]":
(PID.TID 0000.0001)           User time:   9.9999999999994316E-002
(PID.TID 0000.0001)         System time:   9.9999999999997868E-003
(PID.TID 0000.0001)     Wall clock time:  0.12375712394714355
(PID.TID 0000.0001)          No. starts:           4
(PID.TID 0000.0001)           No. stops:           4
(PID.TID 0000.0001)   Seconds in section "EXTERNAL_FLDS_LOAD [LOAD_FLDS_DRIVER]":
(PID.TID 0000.0001)           User time:   0.0000000000000000
(PID.TID 0000.0001)         System time:   0.0000000000000000
(PID.TID 0000.0001)     Wall clock time:   4.4107437133789062E-005
(PID.TID 0000.0001)          No. starts:           4
(PID.TID 0000.0001)           No. stops:           4
(PID.TID 0000.0001)   Seconds in section "DO_ATMOSPHERIC_PHYS [FORWARD_STEP]":
(PID.TID 0000.0001)           User time:   0.0000000000000000
(PID.TID 0000.0001)         System time:   0.0000000000000000
(PID.TID 0000.0001)     Wall clock time:   4.3153762817382812E-005
(PID.TID 0000.0001)          No. starts:           4
(PID.TID 0000.0001)           No. stops:           4
(PID.TID 0000.0001)   Seconds in section "DO_OCEANIC_PHYS     [FORWARD_STEP]":
(PID.TID 0000.0001)           User time:   5.2800000000000011
(PID.TID 0000.0001)         System time:   9.9999999999997868E-003
(PID.TID 0000.0001)     Wall clock time:   5.3051168918609619
(PID.TID 0000.0001)          No. starts:           4
(PID.TID 0000.0001)           No. stops:           4
(PID.TID 0000.0001)   Seconds in section "SEAICE_MODEL    [DO_OCEANIC_PHYS]":
(PID.TID 0000.0001)           User time:   4.1800000000000068
(PID.TID 0000.0001)         System time:   0.0000000000000000
(PID.TID 0000.0001)     Wall clock time:   4.1726102828979492
(PID.TID 0000.0001)          No. starts:           4
(PID.TID 0000.0001)           No. stops:           4
(PID.TID 0000.0001)   Seconds in section "SEAICE_DYNSOLVER   [SEAICE_MODEL]":
(PID.TID 0000.0001)           User time:   4.0800000000000125
(PID.TID 0000.0001)         System time:   0.0000000000000000
(PID.TID 0000.0001)     Wall clock time:   4.0872652530670166
(PID.TID 0000.0001)          No. starts:           4
(PID.TID 0000.0001)           No. stops:           4
(PID.TID 0000.0001)   Seconds in section "KPP_CALC [DO_OCEANIC_PHYS]":
(PID.TID 0000.0001)           User time:  0.95999999999998664
(PID.TID 0000.0001)         System time:   0.0000000000000000
(PID.TID 0000.0001)     Wall clock time:  0.95286631584167480
(PID.TID 0000.0001)          No. starts:          16
(PID.TID 0000.0001)           No. stops:          16
(PID.TID 0000.0001)   Seconds in section "GCHEM_CALC_TENDENCY [FORWARD_STEP]":
(PID.TID 0000.0001)           User time:   0.0000000000000000
(PID.TID 0000.0001)         System time:   0.0000000000000000
(PID.TID 0000.0001)     Wall clock time:   3.9815902709960938E-005
(PID.TID 0000.0001)          No. starts:           4
(PID.TID 0000.0001)           No. stops:           4
(PID.TID 0000.0001)   Seconds in section "DYNAMICS            [FORWARD_STEP]":
(PID.TID 0000.0001)           User time:   1.0299999999999940
(PID.TID 0000.0001)         System time:   0.0000000000000000
(PID.TID 0000.0001)     Wall clock time:   1.0123510360717773
(PID.TID 0000.0001)          No. starts:           4
(PID.TID 0000.0001)           No. stops:           4
(PID.TID 0000.0001)   Seconds in section "UPDATE_SURF_DR      [FORWARD_STEP]":
(PID.TID 0000.0001)           User time:   9.9999999999980105E-003
(PID.TID 0000.0001)         System time:   0.0000000000000000
(PID.TID 0000.0001)     Wall clock time:   9.8679065704345703E-003
(PID.TID 0000.0001)          No. starts:           4
(PID.TID 0000.0001)           No. stops:           4
(PID.TID 0000.0001)   Seconds in section "SOLVE_FOR_PRESSURE  [FORWARD_STEP]":
(PID.TID 0000.0001)           User time:   7.0000000000000284E-002
(PID.TID 0000.0001)         System time:   0.0000000000000000
(PID.TID 0000.0001)     Wall clock time:   7.3367595672607422E-002
(PID.TID 0000.0001)          No. starts:           4
(PID.TID 0000.0001)           No. stops:           4
(PID.TID 0000.0001)   Seconds in section "MOM_CORRECTION_STEP [FORWARD_STEP]":
(PID.TID 0000.0001)           User time:   1.0000000000005116E-002
(PID.TID 0000.0001)         System time:   0.0000000000000000
(PID.TID 0000.0001)     Wall clock time:   2.3042201995849609E-002
(PID.TID 0000.0001)          No. starts:           4
(PID.TID 0000.0001)           No. stops:           4
(PID.TID 0000.0001)   Seconds in section "INTEGR_CONTINUITY   [FORWARD_STEP]":
(PID.TID 0000.0001)           User time:   5.9999999999995168E-002
(PID.TID 0000.0001)         System time:   0.0000000000000000
(PID.TID 0000.0001)     Wall clock time:   4.9570083618164062E-002
(PID.TID 0000.0001)          No. starts:           4
(PID.TID 0000.0001)           No. stops:           4
(PID.TID 0000.0001)   Seconds in section "BLOCKING_EXCHANGES  [FORWARD_STEP]":
(PID.TID 0000.0001)           User time:  0.36999999999999034
(PID.TID 0000.0001)         System time:   0.0000000000000000
(PID.TID 0000.0001)     Wall clock time:  0.37031888961791992
(PID.TID 0000.0001)          No. starts:           8
(PID.TID 0000.0001)           No. stops:           8
(PID.TID 0000.0001)   Seconds in section "THERMODYNAMICS      [FORWARD_STEP]":
(PID.TID 0000.0001)           User time:   44.379999999999981
(PID.TID 0000.0001)         System time:   0.0000000000000000
(PID.TID 0000.0001)     Wall clock time:   44.515685319900513
(PID.TID 0000.0001)          No. starts:           4
(PID.TID 0000.0001)           No. stops:           4
(PID.TID 0000.0001)   Seconds in section "TRC_CORRECTION_STEP [FORWARD_STEP]":
(PID.TID 0000.0001)           User time:  0.54000000000000625
(PID.TID 0000.0001)         System time:   0.0000000000000000
(PID.TID 0000.0001)     Wall clock time:  0.53459572792053223
(PID.TID 0000.0001)          No. starts:           4
(PID.TID 0000.0001)           No. stops:           4
(PID.TID 0000.0001)   Seconds in section "GCHEM_FORCING_SEP  [FORWARD_STEP]":
(PID.TID 0000.0001)           User time:   11.659999999999997
(PID.TID 0000.0001)         System time:   9.9999999999997868E-003
(PID.TID 0000.0001)     Wall clock time:   11.700624704360962
(PID.TID 0000.0001)          No. starts:           4
(PID.TID 0000.0001)           No. stops:           4
(PID.TID 0000.0001)   Seconds in section "GUD_FORCING [GCHEM_FORCING_SEP]":
(PID.TID 0000.0001)           User time:   4.2600000000000335
(PID.TID 0000.0001)         System time:   0.0000000000000000
(PID.TID 0000.0001)     Wall clock time:   4.2930834293365479
(PID.TID 0000.0001)          No. starts:          16
(PID.TID 0000.0001)           No. stops:          16
(PID.TID 0000.0001)   Seconds in section "GUD_LIGHT [GUD_FORCING]":
(PID.TID 0000.0001)           User time:  0.23000000000001819
(PID.TID 0000.0001)         System time:   0.0000000000000000
(PID.TID 0000.0001)     Wall clock time:  0.28047084808349609
(PID.TID 0000.0001)          No. starts:          16
(PID.TID 0000.0001)           No. stops:          16
(PID.TID 0000.0001)   Seconds in section "GUD_FE_CHEM1 [GUD_FORCING]":
(PID.TID 0000.0001)           User time:   3.9999999999992042E-002
(PID.TID 0000.0001)         System time:   0.0000000000000000
(PID.TID 0000.0001)     Wall clock time:   1.5091419219970703E-002
(PID.TID 0000.0001)          No. starts:          16
(PID.TID 0000.0001)           No. stops:          16
(PID.TID 0000.0001)   Seconds in section "GUD_MODEL [GUD_FORCING]":
(PID.TID 0000.0001)           User time:   2.5199999999999960
(PID.TID 0000.0001)         System time:   0.0000000000000000
(PID.TID 0000.0001)     Wall clock time:   2.5427005290985107
(PID.TID 0000.0001)          No. starts:          16
(PID.TID 0000.0001)           No. stops:          16
(PID.TID 0000.0001)   Seconds in section "GUD_GRAZING [GUD_FORCING]":
(PID.TID 0000.0001)           User time:  0.28000000000002956
(PID.TID 0000.0001)         System time:   0.0000000000000000
(PID.TID 0000.0001)     Wall clock time:  0.28284001350402832
(PID.TID 0000.0001)          No. starts:          16
(PID.TID 0000.0001)           No. stops:          16
(PID.TID 0000.0001)   Seconds in section "GUD_SINKING [GUD_FORCING]":
(PID.TID 0000.0001)           User time:   1.1700000000000017
(PID.TID 0000.0001)         System time:   0.0000000000000000
(PID.TID 0000.0001)     Wall clock time:   1.1646983623504639
(PID.TID 0000.0001)          No. starts:          16
(PID.TID 0000.0001)           No. stops:          16
(PID.TID 0000.0001)   Seconds in section "DIAGS_FILL [GUD_FORCING]":
(PID.TID 0000.0001)           User time:   0.0000000000000000
(PID.TID 0000.0001)         System time:   0.0000000000000000
(PID.TID 0000.0001)     Wall clock time:   5.9199333190917969E-004
(PID.TID 0000.0001)          No. starts:          16
(PID.TID 0000.0001)           No. stops:          16
(PID.TID 0000.0001)   Seconds in section "GUD_FE_CHEM1 [GCHEM_FORCING_SEP]":
(PID.TID 0000.0001)           User time:   2.9999999999986926E-002
(PID.TID 0000.0001)         System time:   0.0000000000000000
(PID.TID 0000.0001)     Wall clock time:   1.4750957489013672E-002
(PID.TID 0000.0001)          No. starts:          16
(PID.TID 0000.0001)           No. stops:          16
(PID.TID 0000.0001)   Seconds in section "MONITOR             [FORWARD_STEP]":
(PID.TID 0000.0001)           User time:  0.15999999999999659
(PID.TID 0000.0001)         System time:   0.0000000000000000
(PID.TID 0000.0001)     Wall clock time:  0.15267825126647949
(PID.TID 0000.0001)          No. starts:           4
(PID.TID 0000.0001)           No. stops:           4
(PID.TID 0000.0001)   Seconds in section "DO_THE_MODEL_IO     [FORWARD_STEP]":
(PID.TID 0000.0001)           User time:   11.299999999999997
(PID.TID 0000.0001)         System time:   2.9599999999999991
(PID.TID 0000.0001)     Wall clock time:   15.035566329956055
(PID.TID 0000.0001)          No. starts:           4
(PID.TID 0000.0001)           No. stops:           4
(PID.TID 0000.0001)   Seconds in section "PTRACERS_RESET      [FORWARD_STEP]":
(PID.TID 0000.0001)           User time:   0.0000000000000000
(PID.TID 0000.0001)         System time:   0.0000000000000000
(PID.TID 0000.0001)     Wall clock time:   4.6730041503906250E-005
(PID.TID 0000.0001)          No. starts:           4
(PID.TID 0000.0001)           No. stops:           4
(PID.TID 0000.0001)   Seconds in section "DO_WRITE_PICKUP     [FORWARD_STEP]":
(PID.TID 0000.0001)           User time:   1.0199999999999960
(PID.TID 0000.0001)         System time:  0.16999999999999993
(PID.TID 0000.0001)     Wall clock time:   1.4590072631835938
(PID.TID 0000.0001)          No. starts:           4
(PID.TID 0000.0001)           No. stops:           4
(PID.TID 0000.0001) // ======================================================
(PID.TID 0000.0001) // Tile <-> Tile communication statistics
(PID.TID 0000.0001) // ======================================================
(PID.TID 0000.0001) // o Tile number: 000001
(PID.TID 0000.0001) //         No. X exchanges =              0
(PID.TID 0000.0001) //            Max. X spins =              0
(PID.TID 0000.0001) //            Min. X spins =     1000000000
(PID.TID 0000.0001) //          Total. X spins =              0
(PID.TID 0000.0001) //            Avg. X spins =       0.00E+00
(PID.TID 0000.0001) //         No. Y exchanges =              0
(PID.TID 0000.0001) //            Max. Y spins =              0
(PID.TID 0000.0001) //            Min. Y spins =     1000000000
(PID.TID 0000.0001) //          Total. Y spins =              0
(PID.TID 0000.0001) //            Avg. Y spins =       0.00E+00
(PID.TID 0000.0001) // o Tile number: 000002
(PID.TID 0000.0001) //         No. X exchanges =              0
(PID.TID 0000.0001) //            Max. X spins =              0
(PID.TID 0000.0001) //            Min. X spins =     1000000000
(PID.TID 0000.0001) //          Total. X spins =              0
(PID.TID 0000.0001) //            Avg. X spins =       0.00E+00
(PID.TID 0000.0001) //         No. Y exchanges =              0
(PID.TID 0000.0001) //            Max. Y spins =              0
(PID.TID 0000.0001) //            Min. Y spins =     1000000000
(PID.TID 0000.0001) //          Total. Y spins =              0
(PID.TID 0000.0001) //            Avg. Y spins =       0.00E+00
(PID.TID 0000.0001) // o Tile number: 000003
(PID.TID 0000.0001) //         No. X exchanges =              0
(PID.TID 0000.0001) //            Max. X spins =              0
(PID.TID 0000.0001) //            Min. X spins =     1000000000
(PID.TID 0000.0001) //          Total. X spins =              0
(PID.TID 0000.0001) //            Avg. X spins =       0.00E+00
(PID.TID 0000.0001) //         No. Y exchanges =              0
(PID.TID 0000.0001) //            Max. Y spins =              0
(PID.TID 0000.0001) //            Min. Y spins =     1000000000
(PID.TID 0000.0001) //          Total. Y spins =              0
(PID.TID 0000.0001) //            Avg. Y spins =       0.00E+00
(PID.TID 0000.0001) // o Tile number: 000004
(PID.TID 0000.0001) //         No. X exchanges =              0
(PID.TID 0000.0001) //            Max. X spins =              0
(PID.TID 0000.0001) //            Min. X spins =     1000000000
(PID.TID 0000.0001) //          Total. X spins =              0
(PID.TID 0000.0001) //            Avg. X spins =       0.00E+00
(PID.TID 0000.0001) //         No. Y exchanges =              0
(PID.TID 0000.0001) //            Max. Y spins =              0
(PID.TID 0000.0001) //            Min. Y spins =     1000000000
(PID.TID 0000.0001) //          Total. Y spins =              0
(PID.TID 0000.0001) //            Avg. Y spins =       0.00E+00
(PID.TID 0000.0001) // o Thread number: 000001
(PID.TID 0000.0001) //            No. barriers =          27708
(PID.TID 0000.0001) //      Max. barrier spins =              1
(PID.TID 0000.0001) //      Min. barrier spins =              1
(PID.TID 0000.0001) //     Total barrier spins =          27708
(PID.TID 0000.0001) //      Avg. barrier spins =       1.00E+00
PROGRAM MAIN: Execution ended Normally
