(PID.TID 0000.0001) %MON XC_max                       =   3.4323280334472656E+01
(PID.TID 0000.0001) %MON XC_min                       =   6.2812995910644531E+00
(PID.TID 0000.0001) %MON XC_mean                      =   1.8285267813948163E+01
(PID.TID 0000.0001) %MON XC_sd                        =   6.3900599945909500E+00
(PID.TID 0000.0001) %MON XG_max                       =   3.4363361358642578E+01
(PID.TID 0000.0001) %MON XG_min                       =   6.3874454498291016E+00
(PID.TID 0000.0001) %MON XG_mean                      =   1.8373648876945175E+01
(PID.TID 0000.0001) %MON XG_sd                        =   6.3700484752252073E+00
(PID.TID 0000.0001) %MON DXC_max                      =   2.2403076171875000E+04
(PID.TID 0000.0001) %MON DXC_min                      =   1.8505916015625000E+04
(PID.TID 0000.0001) %MON DXC_mean                     =   2.0203672926874886E+04
(PID.TID 0000.0001) %MON DXC_sd                       =   9.5458170268745039E+02
(PID.TID 0000.0001) %MON DXF_max                      =   2.2370343750000000E+04
(PID.TID 0000.0001) %MON DXF_min                      =   1.8493386718750000E+04
(PID.TID 0000.0001) %MON DXF_mean                     =   2.0182404881527549E+04
(PID.TID 0000.0001) %MON DXF_sd                       =   9.4946222069420321E+02
(PID.TID 0000.0001) %MON DXG_max                      =   2.2367550781250000E+04
(PID.TID 0000.0001) %MON DXG_min                      =   1.8487599609375000E+04
(PID.TID 0000.0001) %MON DXG_mean                     =   2.0177259786683913E+04
(PID.TID 0000.0001) %MON DXG_sd                       =   9.4896516606817841E+02
(PID.TID 0000.0001) %MON DXV_max                      =   2.2400273437500000E+04
(PID.TID 0000.0001) %MON DXV_min                      =   1.8500103515625000E+04
(PID.TID 0000.0001) %MON DXV_mean                     =   2.0198506532189440E+04
(PID.TID 0000.0001) %MON DXV_sd                       =   9.5408286863331898E+02
(PID.TID 0000.0001) %MON YC_max                       =   6.7494171142578125E+01
(PID.TID 0000.0001) %MON YC_min                       =   5.1496150970458984E+01
(PID.TID 0000.0001) %MON YC_mean                      =   5.9557142692699763E+01
(PID.TID 0000.0001) %MON YC_sd                        =   3.8956559034089806E+00
(PID.TID 0000.0001) %MON YG_max                       =   6.7396972656250000E+01
(PID.TID 0000.0001) %MON YG_min                       =   5.1380382537841797E+01
(PID.TID 0000.0001) %MON YG_mean                      =   5.9448751095442738E+01
(PID.TID 0000.0001) %MON YG_sd                        =   3.8981480636126395E+00
(PID.TID 0000.0001) %MON DYC_max                      =   1.7253792968750000E+04
(PID.TID 0000.0001) %MON DYC_min                      =   1.6167729492187500E+04
(PID.TID 0000.0001) %MON DYC_mean                     =   1.6590043869643181E+04
(PID.TID 0000.0001) %MON DYC_sd                       =   2.2883025615362985E+02
(PID.TID 0000.0001) %MON DYF_max                      =   1.7247535156250000E+04
(PID.TID 0000.0001) %MON DYF_min                      =   1.6166898437500000E+04
(PID.TID 0000.0001) %MON DYF_mean                     =   1.6587223710623399E+04
(PID.TID 0000.0001) %MON DYF_sd                       =   2.2779671061984945E+02
(PID.TID 0000.0001) %MON DYG_max                      =   1.7242103515625000E+04
(PID.TID 0000.0001) %MON DYG_min                      =   1.6164107421875000E+04
(PID.TID 0000.0001) %MON DYG_mean                     =   1.6582914334659687E+04
(PID.TID 0000.0001) %MON DYG_sd                       =   2.2730275857503943E+02
(PID.TID 0000.0001) %MON DYU_max                      =   1.7248339843750000E+04
(PID.TID 0000.0001) %MON DYU_min                      =   1.6164934570312500E+04
(PID.TID 0000.0001) %MON DYU_mean                     =   1.6585720694380198E+04
(PID.TID 0000.0001) %MON DYU_sd                       =   2.2833267244082208E+02
(PID.TID 0000.0001) %MON RA_max                       =   3.6165907200000000E+08
(PID.TID 0000.0001) %MON RA_min                       =   3.1759747200000000E+08
(PID.TID 0000.0001) %MON RA_mean                      =   3.3456872125730991E+08
(PID.TID 0000.0001) %MON RA_sd                        =   1.1547923169062844E+07
(PID.TID 0000.0001) %MON RAW_max                      =   3.6212576000000000E+08
(PID.TID 0000.0001) %MON RAW_min                      =   3.1777328000000000E+08
(PID.TID 0000.0001) %MON RAW_mean                     =   3.3483373194736838E+08
(PID.TID 0000.0001) %MON RAW_sd                       =   1.1630830944480687E+07
(PID.TID 0000.0001) %MON RAS_max                      =   3.6163251200000000E+08
(PID.TID 0000.0001) %MON RAS_min                      =   3.1760160000000000E+08
(PID.TID 0000.0001) %MON RAS_mean                     =   3.3453950318128651E+08
(PID.TID 0000.0001) %MON RAS_sd                       =   1.1525868078588968E+07
(PID.TID 0000.0001) %MON RAZ_max                      =   3.6209897600000000E+08
(PID.TID 0000.0001) %MON RAZ_min                      =   3.1777724800000000E+08
(PID.TID 0000.0001) %MON RAZ_mean                     =   3.3480396163742685E+08
(PID.TID 0000.0001) %MON RAZ_sd                       =   1.1608759740397641E+07
(PID.TID 0000.0001) %MON AngleCS_max                  =   5.5429527386919508E-01
(PID.TID 0000.0001) %MON AngleCS_min                  =  -9.9944725063758888E-01
(PID.TID 0000.0001) %MON AngleCS_mean                 =   2.7438028807017001E-01
(PID.TID 0000.0001) %MON AngleCS_sd                   =   1.8420475006331527E-01
(PID.TID 0000.0001) %MON AngleSN_max                  =   9.9515176606236022E-01
(PID.TID 0000.0001) %MON AngleSN_min                  =  -9.9999853122240556E-01
(PID.TID 0000.0001) %MON AngleSN_mean                 =   9.1101249395655759E-01
(PID.TID 0000.0001) %MON AngleSN_sd                   =   2.4665827257097037E-01
(PID.TID 0000.0001) %MON fCori_max                    =   1.3473519476330014E-04
(PID.TID 0000.0001) %MON fCori_min                    =   1.1413140759593706E-04
(PID.TID 0000.0001) %MON fCori_mean                   =   1.2544553688213577E-04
(PID.TID 0000.0001) %MON fCori_sd                     =   5.0297255000289948E-06
(PID.TID 0000.0001) %MON fCoriG_max                   =   1.3464029717915468E-04
(PID.TID 0000.0001) %MON fCoriG_min                   =   1.1394771627179789E-04
(PID.TID 0000.0001) %MON fCoriG_mean                  =   1.2530547026595292E-04
(PID.TID 0000.0001) %MON fCoriG_sd                    =   5.0490402546810822E-06
(PID.TID 0000.0001) %MON fCoriCos_max                 =   9.0796739781710828E-05
(PID.TID 0000.0001) %MON fCoriCos_min                 =   5.5825204405476284E-05
(PID.TID 0000.0001) %MON fCoriCos_mean                =   7.3724492265692457E-05
(PID.TID 0000.0001) %MON fCoriCos_sd                  =   8.5349008623744150E-06
(PID.TID 0000.0001) %MON time_tsnumber                =                188388
(PID.TID 0000.0001) %MON time_secondsf                =   2.2606560000000000E+08
(PID.TID 0000.0001) %MON dynstat_eta_max              =   6.7857206100958711E-01
(PID.TID 0000.0001) %MON dynstat_eta_min              =   2.4834525795928930E-02
(PID.TID 0000.0001) %MON dynstat_eta_mean             =   3.7231760032401895E-01
(PID.TID 0000.0001) %MON dynstat_eta_sd               =   1.5436287975570434E-01
(PID.TID 0000.0001) %MON dynstat_eta_del2             =   3.3947822651081628E-04
(PID.TID 0000.0001) %MON dynstat_uvel_max             =   4.1043654315727213E-01
(PID.TID 0000.0001) %MON dynstat_uvel_min             =  -3.3404372355545675E-01
(PID.TID 0000.0001) %MON dynstat_uvel_mean            =   7.2247190886371654E-03
(PID.TID 0000.0001) %MON dynstat_uvel_sd              =   6.1628348035587581E-02
(PID.TID 0000.0001) %MON dynstat_uvel_del2            =   9.6493604067269113E-04
(PID.TID 0000.0001) %MON dynstat_vvel_max             =   2.8285402026493334E-01
(PID.TID 0000.0001) %MON dynstat_vvel_min             =  -4.5228332030970847E-01
(PID.TID 0000.0001) %MON dynstat_vvel_mean            =   1.9335722007697903E-03
(PID.TID 0000.0001) %MON dynstat_vvel_sd              =   6.4592845574375501E-02
(PID.TID 0000.0001) %MON dynstat_vvel_del2            =   1.1515551720993010E-03
(PID.TID 0000.0001) %MON dynstat_wvel_max             =   4.9575213564627592E-04
(PID.TID 0000.0001) %MON dynstat_wvel_min             =  -5.0890006120395213E-04
(PID.TID 0000.0001) %MON dynstat_wvel_mean            =  -2.6308567236582174E-06
(PID.TID 0000.0001) %MON dynstat_wvel_sd              =   7.5801737004417552E-05
(PID.TID 0000.0001) %MON dynstat_wvel_del2            =   2.0446148495701136E-06
(PID.TID 0000.0001) %MON dynstat_theta_max            =   7.9698650573135801E+00
(PID.TID 0000.0001) %MON dynstat_theta_min            =  -1.6138727636084647E+00
(PID.TID 0000.0001) %MON dynstat_theta_mean           =   3.7798105201790695E+00
(PID.TID 0000.0001) %MON dynstat_theta_sd             =   2.2019507085375647E+00
(PID.TID 0000.0001) %MON dynstat_theta_del2           =   6.0422941678782028E-03
(PID.TID 0000.0001) %MON dynstat_salt_max             =   3.4927700428884421E+01
(PID.TID 0000.0001) %MON dynstat_salt_min             =   5.6521891769461945E+00
(PID.TID 0000.0001) %MON dynstat_salt_mean            =   1.5353356064885025E+01
(PID.TID 0000.0001) %MON dynstat_salt_sd              =   1.1951795815058970E+01
(PID.TID 0000.0001) %MON dynstat_salt_del2            =   3.5921468721428207E-03
(PID.TID 0000.0001) %MON forcing_qnet_max             =   0.0000000000000000E+00
(PID.TID 0000.0001) %MON forcing_qnet_min             =   0.0000000000000000E+00
(PID.TID 0000.0001) %MON forcing_qnet_mean            =   0.0000000000000000E+00
(PID.TID 0000.0001) %MON forcing_qnet_sd              =   0.0000000000000000E+00
(PID.TID 0000.0001) %MON forcing_qnet_del2            =   0.0000000000000000E+00
(PID.TID 0000.0001) %MON forcing_qsw_max              =   0.0000000000000000E+00
(PID.TID 0000.0001) %MON forcing_qsw_min              =   0.0000000000000000E+00
(PID.TID 0000.0001) %MON forcing_qsw_mean             =   0.0000000000000000E+00
(PID.TID 0000.0001) %MON forcing_qsw_sd               =   0.0000000000000000E+00
(PID.TID 0000.0001) %MON forcing_qsw_del2             =   0.0000000000000000E+00
(PID.TID 0000.0001) %MON forcing_empmr_max            =   0.0000000000000000E+00
(PID.TID 0000.0001) %MON forcing_empmr_min            =   0.0000000000000000E+00
(PID.TID 0000.0001) %MON forcing_empmr_mean           =   0.0000000000000000E+00
(PID.TID 0000.0001) %MON forcing_empmr_sd             =   0.0000000000000000E+00
(PID.TID 0000.0001) %MON forcing_empmr_del2           =   0.0000000000000000E+00
(PID.TID 0000.0001) %MON forcing_fu_max               =   0.0000000000000000E+00
(PID.TID 0000.0001) %MON forcing_fu_min               =   0.0000000000000000E+00
(PID.TID 0000.0001) %MON forcing_fu_mean              =   0.0000000000000000E+00
(PID.TID 0000.0001) %MON forcing_fu_sd                =   0.0000000000000000E+00
(PID.TID 0000.0001) %MON forcing_fu_del2              =   0.0000000000000000E+00
(PID.TID 0000.0001) %MON forcing_fv_max               =   0.0000000000000000E+00
(PID.TID 0000.0001) %MON forcing_fv_min               =   0.0000000000000000E+00
(PID.TID 0000.0001) %MON forcing_fv_mean              =   0.0000000000000000E+00
(PID.TID 0000.0001) %MON forcing_fv_sd                =   0.0000000000000000E+00
(PID.TID 0000.0001) %MON forcing_fv_del2              =   0.0000000000000000E+00
(PID.TID 0000.0001) %MON advcfl_uvel_max              =   2.3317424706639465E-02
(PID.TID 0000.0001) %MON advcfl_vvel_max              =   3.3222803653596061E-02
(PID.TID 0000.0001) %MON advcfl_wvel_max              =   5.9490256277553118E-02
(PID.TID 0000.0001) %MON advcfl_W_hf_max              =   5.9490256277553111E-02
(PID.TID 0000.0001) %MON pe_b_mean                    =   1.3744958230235175E-02
(PID.TID 0000.0001) %MON ke_max                       =   1.1199894577682115E-01
(PID.TID 0000.0001) %MON ke_mean                      =   3.2427959349813954E-03
(PID.TID 0000.0001) %MON ke_vol                       =   2.7634533915293965E+13
(PID.TID 0000.0001) %MON vort_r_min                   =  -3.7637061990678276E-05
(PID.TID 0000.0001) %MON vort_r_max                   =   3.2699331518938406E-05
(PID.TID 0000.0001) %MON vort_a_mean                  =   1.2397138973741019E-04
(PID.TID 0000.0001) %MON vort_a_sd                    =   6.2966918177204300E-06
(PID.TID 0000.0001) %MON vort_p_mean                  =   1.7325062561131650E-04
(PID.TID 0000.0001) %MON vort_p_sd                    =   1.0960208317016335E-04
(PID.TID 0000.0001) %MON surfExpan_theta_mean         =  -9.0466029399821314E-07
(PID.TID 0000.0001) %MON surfExpan_salt_mean          =   1.2050928594725965E-06
(PID.TID 0000.0001) %MON obc_W_uVel_max               =   7.0339930350663230E-02
(PID.TID 0000.0001) %MON obc_W_uVel_min               =  -1.2534759400534581E-02
(PID.TID 0000.0001) %MON obc_W_uVel_mean              =   2.2514378965596212E-02
(PID.TID 0000.0001) %MON obc_W_uVel_sd                =   2.5890103192371092E-02
(PID.TID 0000.0001) %MON obc_W_uVel_Int               =   4.7351175925312804E+04
(PID.TID 0000.0001) %MON obc_N_vVel_max               =   1.8577546101124559E-01
(PID.TID 0000.0001) %MON obc_N_vVel_min               =  -2.5391576023863965E-01
(PID.TID 0000.0001) %MON obc_N_vVel_mean              =   1.5193571121082125E-03
(PID.TID 0000.0001) %MON obc_N_vVel_sd                =   8.5462048288720741E-02
(PID.TID 0000.0001) %MON obc_N_vVel_Int               =   4.7666041382966701E+04
(PID.TID 0000.0001) %MON seaice_tsnumber              =                188388
(PID.TID 0000.0001) %MON seaice_time_sec              =   2.2606560000000000E+08
(PID.TID 0000.0001) %MON seaice_uice_max              =   4.0000000000000002E-01
(PID.TID 0000.0001) %MON seaice_uice_min              =  -2.0818735801076482E-01
(PID.TID 0000.0001) %MON seaice_uice_mean             =   1.7135534274809930E-01
(PID.TID 0000.0001) %MON seaice_uice_sd               =   1.2732607744757968E-01
(PID.TID 0000.0001) %MON seaice_uice_del2             =   2.4397363148549664E-03
(PID.TID 0000.0001) %MON seaice_vice_max              =   4.0000000000000002E-01
(PID.TID 0000.0001) %MON seaice_vice_min              =  -4.0000000000000002E-01
(PID.TID 0000.0001) %MON seaice_vice_mean             =  -8.2298987070637014E-02
(PID.TID 0000.0001) %MON seaice_vice_sd               =   1.4565675515411491E-01
(PID.TID 0000.0001) %MON seaice_vice_del2             =   2.7744345086973122E-03
(PID.TID 0000.0001) %MON seaice_area_max              =   1.0000000000000000E+00
(PID.TID 0000.0001) %MON seaice_area_min              =   0.0000000000000000E+00
(PID.TID 0000.0001) %MON seaice_area_mean             =   2.2620370416445418E-01
(PID.TID 0000.0001) %MON seaice_area_sd               =   3.8531906057259507E-01
(PID.TID 0000.0001) %MON seaice_area_del2             =   4.5224430665296916E-03
(PID.TID 0000.0001) %MON seaice_heff_max              =   1.0115990757456528E+00
(PID.TID 0000.0001) %MON seaice_heff_min              =   0.0000000000000000E+00
(PID.TID 0000.0001) %MON seaice_heff_mean             =   1.2507534371603943E-01
(PID.TID 0000.0001) %MON seaice_heff_sd               =   2.4312450293484875E-01
(PID.TID 0000.0001) %MON seaice_heff_del2             =   2.2409775961535310E-03
(PID.TID 0000.0001) %MON seaice_hsnow_max             =   2.7588954944145094E-01
(PID.TID 0000.0001) %MON seaice_hsnow_min             =   0.0000000000000000E+00
(PID.TID 0000.0001) %MON seaice_hsnow_mean            =   3.0754289927356501E-02
(PID.TID 0000.0001) %MON seaice_hsnow_sd              =   6.4155555132779193E-02
(PID.TID 0000.0001) %MON seaice_hsnow_del2            =   3.7889157137013492E-04
(PID.TID 0000.0001) %MON seaice_sitracer01_max        =   0.0000000000000000E+00
(PID.TID 0000.0001) %MON seaice_sitracer01_min        =   0.0000000000000000E+00
(PID.TID 0000.0001) %MON seaice_sitracer01_mean       =   0.0000000000000000E+00
(PID.TID 0000.0001) %MON seaice_sitracer01_sd         =   0.0000000000000000E+00
(PID.TID 0000.0001) %MON seaice_sitracer01_del2       =   0.0000000000000000E+00
(PID.TID 0000.0001) %MON seaice_sitracer02_max        =   1.0000000000000000E+00
(PID.TID 0000.0001) %MON seaice_sitracer02_min        =   1.0000000000000000E+00
(PID.TID 0000.0001) %MON seaice_sitracer02_mean       =   1.0000000000000000E+00
(PID.TID 0000.0001) %MON seaice_sitracer02_sd         =   0.0000000000000000E+00
(PID.TID 0000.0001) %MON seaice_sitracer02_del2       =   0.0000000000000000E+00
(PID.TID 0000.0001) %MON trcstat_ptracer01_max        =                      NAN
(PID.TID 0000.0001) %MON trcstat_ptracer01_min        =                      NAN
(PID.TID 0000.0001) %MON trcstat_ptracer01_mean       =                      NAN
(PID.TID 0000.0001) %MON trcstat_ptracer01_sd         =                      NAN
(PID.TID 0000.0001) %MON trcstat_ptracer01_del2       =                      NAN
(PID.TID 0000.0001) %MON trcstat_ptracer02_max        =   2.4088283189212198E-01
(PID.TID 0000.0001) %MON trcstat_ptracer02_min        =   2.2474205615250472E-07
(PID.TID 0000.0001) %MON trcstat_ptracer02_mean       =   1.3306268867075541E-02
(PID.TID 0000.0001) %MON trcstat_ptracer02_sd         =   1.7399648106629178E-02
(PID.TID 0000.0001) %MON trcstat_ptracer02_del2       =   8.4392226997531650E-04
(PID.TID 0000.0001) %MON trcstat_ptracer03_max        =   2.3343713360813010E+00
(PID.TID 0000.0001) %MON trcstat_ptracer03_min        =   3.0233044741168771E-05
(PID.TID 0000.0001) %MON trcstat_ptracer03_mean       =   1.5995994386708359E-01
(PID.TID 0000.0001) %MON trcstat_ptracer03_sd         =   1.8965697331950374E-01
(PID.TID 0000.0001) %MON trcstat_ptracer03_del2       =   7.1050919677114550E-04
(PID.TID 0000.0001) %MON trcstat_ptracer04_max        =   4.4161324524730645E+01
(PID.TID 0000.0001) %MON trcstat_ptracer04_min        =   1.4930485383354404E-02
(PID.TID 0000.0001) %MON trcstat_ptracer04_mean       =   4.5816946354514156E+00
(PID.TID 0000.0001) %MON trcstat_ptracer04_sd         =   6.6985150791487031E+00
(PID.TID 0000.0001) %MON trcstat_ptracer04_del2       =   1.2507498180654103E-02
(PID.TID 0000.0001) %MON trcstat_ptracer05_max        =   4.3206749483820941E+00
(PID.TID 0000.0001) %MON trcstat_ptracer05_min        =   3.7997221289855138E-02
(PID.TID 0000.0001) %MON trcstat_ptracer05_mean       =   5.9103671591413176E-01
(PID.TID 0000.0001) %MON trcstat_ptracer05_sd         =   5.1755891503144069E-01
(PID.TID 0000.0001) %MON trcstat_ptracer05_del2       =   8.6322666859241963E-04
(PID.TID 0000.0001) %MON trcstat_ptracer06_max        =   1.5669854101843586E+02
(PID.TID 0000.0001) %MON trcstat_ptracer06_min        =   6.2666926623514640E-02
(PID.TID 0000.0001) %MON trcstat_ptracer06_mean       =   1.4711712348283463E+01
(PID.TID 0000.0001) %MON trcstat_ptracer06_sd         =   1.7084930997851647E+01
(PID.TID 0000.0001) %MON trcstat_ptracer06_del2       =   2.7884970893014668E-02
(PID.TID 0000.0001) %MON trcstat_ptracer07_max        =   1.3876605029831785E-03
(PID.TID 0000.0001) %MON trcstat_ptracer07_min        =   5.8864303059656968E-04
(PID.TID 0000.0001) %MON trcstat_ptracer07_mean       =   1.0854101856157610E-03
(PID.TID 0000.0001) %MON trcstat_ptracer07_sd         =   1.4544221423653031E-04
(PID.TID 0000.0001) %MON trcstat_ptracer07_del2       =   4.5510068884115327E-07
(PID.TID 0000.0001) %MON trcstat_ptracer08_max        =   3.3988026277105284E+01
(PID.TID 0000.0001) %MON trcstat_ptracer08_min        =   1.0008355486136631E-05
(PID.TID 0000.0001) %MON trcstat_ptracer08_mean       =   7.0068118323062913E+00
(PID.TID 0000.0001) %MON trcstat_ptracer08_sd         =   6.8277362995400495E+00
(PID.TID 0000.0001) %MON trcstat_ptracer08_del2       =   1.7653856611914081E-02
(PID.TID 0000.0001) %MON trcstat_ptracer09_max        =   4.5317368369473714E+00
(PID.TID 0000.0001) %MON trcstat_ptracer09_min        =   1.3344473981515508E-06
(PID.TID 0000.0001) %MON trcstat_ptracer09_mean       =   9.3424157764083882E-01
(PID.TID 0000.0001) %MON trcstat_ptracer09_sd         =   9.1036483993867323E-01
(PID.TID 0000.0001) %MON trcstat_ptracer09_del2       =   2.3538475482552108E-03
(PID.TID 0000.0001) %MON trcstat_ptracer10_max        =   2.8323355230921071E-01
(PID.TID 0000.0001) %MON trcstat_ptracer10_min        =   8.3402962384471924E-08
(PID.TID 0000.0001) %MON trcstat_ptracer10_mean       =   5.8390098602552426E-02
(PID.TID 0000.0001) %MON trcstat_ptracer10_sd         =   5.6897802496167077E-02
(PID.TID 0000.0001) %MON trcstat_ptracer10_del2       =   1.4711547176595068E-04
(PID.TID 0000.0001) %MON trcstat_ptracer11_max        =   2.8323355230920979E-04
(PID.TID 0000.0001) %MON trcstat_ptracer11_min        =   8.3402962384474448E-11
(PID.TID 0000.0001) %MON trcstat_ptracer11_mean       =   5.8390098590765158E-05
(PID.TID 0000.0001) %MON trcstat_ptracer11_sd         =   5.6897802550780119E-05
(PID.TID 0000.0001) %MON trcstat_ptracer11_del2       =   1.4711547217958639E-07
(PID.TID 0000.0001) %MON trcstat_ptracer12_max        =   1.2145173872087076E+02
(PID.TID 0000.0001) %MON trcstat_ptracer12_min        =   4.0474779506730960E-07
(PID.TID 0000.0001) %MON trcstat_ptracer12_mean       =   2.4528523807464317E+00
(PID.TID 0000.0001) %MON trcstat_ptracer12_sd         =   5.8847527692661972E+00
(PID.TID 0000.0001) %MON trcstat_ptracer12_del2       =   3.5676707414754386E-02
(PID.TID 0000.0001) %MON trcstat_ptracer13_max        =   1.6193565162782768E+01
(PID.TID 0000.0001) %MON trcstat_ptracer13_min        =   5.3966372675641278E-08
(PID.TID 0000.0001) %MON trcstat_ptracer13_mean       =   3.2704698409952421E-01
(PID.TID 0000.0001) %MON trcstat_ptracer13_sd         =   7.8463370256882625E-01
(PID.TID 0000.0001) %MON trcstat_ptracer13_del2       =   4.7568943219672517E-03
(PID.TID 0000.0001) %MON trcstat_ptracer14_max        =   1.0120978226739230E+00
(PID.TID 0000.0001) %MON trcstat_ptracer14_min        =   3.3728982922275799E-09
(PID.TID 0000.0001) %MON trcstat_ptracer14_mean       =   2.0440436506220263E-02
(PID.TID 0000.0001) %MON trcstat_ptracer14_sd         =   4.9039606410551641E-02
(PID.TID 0000.0001) %MON trcstat_ptracer14_del2       =   2.9730589512295323E-04
(PID.TID 0000.0001) %MON trcstat_ptracer15_max        =   3.0580937614223961E+02
(PID.TID 0000.0001) %MON trcstat_ptracer15_min        =   9.2263135852666283E-08
(PID.TID 0000.0001) %MON trcstat_ptracer15_mean       =   2.2926781173420396E+00
(PID.TID 0000.0001) %MON trcstat_ptracer15_sd         =   1.2523619914418093E+01
(PID.TID 0000.0001) %MON trcstat_ptracer15_del2       =   5.3794026014664792E-02
(PID.TID 0000.0001) %MON trcstat_ptracer16_max        =   1.0120978226739236E-03
(PID.TID 0000.0001) %MON trcstat_ptracer16_min        =   3.3728982922275780E-12
(PID.TID 0000.0001) %MON trcstat_ptracer16_mean       =   2.0440436510832252E-05
(PID.TID 0000.0001) %MON trcstat_ptracer16_sd         =   4.9039606407544719E-05
(PID.TID 0000.0001) %MON trcstat_ptracer16_del2       =   2.9730589535056332E-07
(PID.TID 0000.0001) %MON trcstat_ptracer17_max        =                      NAN
(PID.TID 0000.0001) %MON trcstat_ptracer17_min        =                      NAN
(PID.TID 0000.0001) %MON trcstat_ptracer17_mean       =                      NAN
(PID.TID 0000.0001) %MON trcstat_ptracer17_sd         =                      NAN
(PID.TID 0000.0001) %MON trcstat_ptracer17_del2       =                      NAN
(PID.TID 0000.0001) %MON trcstat_ptracer18_max        =   6.7160809275511532E-03
(PID.TID 0000.0001) %MON trcstat_ptracer18_min        =  -2.5282282675184914E-17
(PID.TID 0000.0001) %MON trcstat_ptracer18_mean       =   1.4978182993079014E-05
(PID.TID 0000.0001) %MON trcstat_ptracer18_sd         =   2.1608478386643212E-04
(PID.TID 0000.0001) %MON trcstat_ptracer18_del2       =   5.4234963262380309E-06
(PID.TID 0000.0001) %MON trcstat_ptracer19_max        =   6.3412597152118666E-02
(PID.TID 0000.0001) %MON trcstat_ptracer19_min        =  -2.7122201165532364E-22
(PID.TID 0000.0001) %MON trcstat_ptracer19_mean       =   8.8554033809906197E-04
(PID.TID 0000.0001) %MON trcstat_ptracer19_sd         =   4.8230735621064271E-03
(PID.TID 0000.0001) %MON trcstat_ptracer19_del2       =   2.2948461094219885E-05
(PID.TID 0000.0001) %MON trcstat_ptracer20_max        =   6.7160816657479425E-03
(PID.TID 0000.0001) %MON trcstat_ptracer20_min        =   6.8477824509234561E-49
(PID.TID 0000.0001) %MON trcstat_ptracer20_mean       =   1.4993960598903474E-05
(PID.TID 0000.0001) %MON trcstat_ptracer20_sd         =   2.1608369210479958E-04
(PID.TID 0000.0001) %MON trcstat_ptracer20_del2       =   5.4234975367925461E-06
(PID.TID 0000.0001) %MON trcstat_ptracer21_max        =   1.7065828309101867E-02
(PID.TID 0000.0001) %MON trcstat_ptracer21_min        =   9.6751936385919035E-32
(PID.TID 0000.0001) %MON trcstat_ptracer21_mean       =   3.2255229412249734E-04
(PID.TID 0000.0001) %MON trcstat_ptracer21_sd         =   1.2938275261848169E-03
(PID.TID 0000.0001) %MON trcstat_ptracer21_del2       =   1.2580685187547339E-05
(PID.TID 0000.0001) %MON trcstat_ptracer22_max        =   6.2875543792765450E-03
(PID.TID 0000.0001) %MON trcstat_ptracer22_min        =  -3.2258539962785970E-15
(PID.TID 0000.0001) %MON trcstat_ptracer22_mean       =   1.2723714756593754E-05
(PID.TID 0000.0001) %MON trcstat_ptracer22_sd         =   1.9879652239618862E-04
(PID.TID 0000.0001) %MON trcstat_ptracer22_del2       =   5.5465273533863273E-06
(PID.TID 0000.0001) %MON trcstat_ptracer23_max        =   1.1655290670311342E+00
(PID.TID 0000.0001) %MON trcstat_ptracer23_min        =   1.5491371719865101E-17
(PID.TID 0000.0001) %MON trcstat_ptracer23_mean       =   2.9621691744934283E-02
(PID.TID 0000.0001) %MON trcstat_ptracer23_sd         =   8.1493414059534447E-02
(PID.TID 0000.0001) %MON trcstat_ptracer23_del2       =   6.4200896604985091E-04
(PID.TID 0000.0001) %MON trcstat_ptracer24_max        =   1.1113689816363639E+01
(PID.TID 0000.0001) %MON trcstat_ptracer24_min        =   8.0446875794931531E-22
(PID.TID 0000.0001) %MON trcstat_ptracer24_mean       =   1.9465741644132784E-01
(PID.TID 0000.0001) %MON trcstat_ptracer24_sd         =   7.0785731378298145E-01
(PID.TID 0000.0001) %MON trcstat_ptracer24_del2       =   5.5918233866101901E-03
(PID.TID 0000.0001) %MON trcstat_ptracer25_max        =   1.2706961191769370E-01
(PID.TID 0000.0001) %MON trcstat_ptracer25_min        =   1.1999999999984851E-48
(PID.TID 0000.0001) %MON trcstat_ptracer25_mean       =   3.5974285793982278E-04
(PID.TID 0000.0001) %MON trcstat_ptracer25_sd         =   2.9088452635794319E-03
(PID.TID 0000.0001) %MON trcstat_ptracer25_del2       =   2.0527733810603070E-05
(PID.TID 0000.0001) %MON trcstat_ptracer26_max        =   1.5692748325571764E+00
(PID.TID 0000.0001) %MON trcstat_ptracer26_min        =   1.4644528178958096E-27
(PID.TID 0000.0001) %MON trcstat_ptracer26_mean       =   1.6750711579971038E-02
(PID.TID 0000.0001) %MON trcstat_ptracer26_sd         =   8.6928193872717302E-02
(PID.TID 0000.0001) %MON trcstat_ptracer26_del2       =   8.7892186118214844E-04
(PID.TID 0000.0001) %MON trcstat_ptracer27_max        =   6.4885703170104335E-03
(PID.TID 0000.0001) %MON trcstat_ptracer27_min        =   1.5125227373541844E-12
(PID.TID 0000.0001) %MON trcstat_ptracer27_mean       =   1.4048560587107132E-05
(PID.TID 0000.0001) %MON trcstat_ptracer27_sd         =   2.1012996932359671E-04
(PID.TID 0000.0001) %MON trcstat_ptracer27_del2       =   5.4449869265398537E-06
(PID.TID 0000.0001) %MON trcstat_ptracer28_max        =   6.4885558151430434E-03
(PID.TID 0000.0001) %MON trcstat_ptracer28_min        =  -6.5388706433223866E-17
(PID.TID 0000.0001) %MON trcstat_ptracer28_mean       =   1.3888117610578572E-05
(PID.TID 0000.0001) %MON trcstat_ptracer28_sd         =   2.1013862043382054E-04
(PID.TID 0000.0001) %MON trcstat_ptracer28_del2       =   5.4449905361658990E-06
(PID.TID 0000.0001) %MON trcstat_ptracer29_max        =   6.2875543793830127E-03
(PID.TID 0000.0001) %MON trcstat_ptracer29_min        =  -2.4747053506227998E-19
(PID.TID 0000.0001) %MON trcstat_ptracer29_mean       =   1.2723714777145195E-05
(PID.TID 0000.0001) %MON trcstat_ptracer29_sd         =   1.9879652239870033E-04
(PID.TID 0000.0001) %MON trcstat_ptracer29_del2       =   5.5465273533504808E-06
(PID.TID 0000.0001) %MON trcstat_ptracer30_max        =   6.7160809275052854E-03
(PID.TID 0000.0001) %MON trcstat_ptracer30_min        =   6.8248312013920386E-49
(PID.TID 0000.0001) %MON trcstat_ptracer30_mean       =   1.4978295329943919E-05
(PID.TID 0000.0001) %MON trcstat_ptracer30_sd         =   2.1608477585438515E-04
(PID.TID 0000.0001) %MON trcstat_ptracer30_del2       =   5.4234963311503053E-06
(PID.TID 0000.0001) %MON trcstat_ptracer31_max        =   6.2875543793589461E-03
(PID.TID 0000.0001) %MON trcstat_ptracer31_min        =  -3.1196430320518621E-15
(PID.TID 0000.0001) %MON trcstat_ptracer31_mean       =   1.2723714756916665E-05
(PID.TID 0000.0001) %MON trcstat_ptracer31_sd         =   1.9879652239884597E-04
(PID.TID 0000.0001) %MON trcstat_ptracer31_del2       =   5.5465273533665694E-06
(PID.TID 0000.0001) %MON trcstat_ptracer32_max        =   6.7160809260696066E-03
(PID.TID 0000.0001) %MON trcstat_ptracer32_min        =  -7.0632941367040027E-17
(PID.TID 0000.0001) %MON trcstat_ptracer32_mean       =   1.4978126006242058E-05
(PID.TID 0000.0001) %MON trcstat_ptracer32_sd         =   2.1608478789347815E-04
(PID.TID 0000.0001) %MON trcstat_ptracer32_del2       =   5.4234963197457140E-06
(PID.TID 0000.0001) %MON trcstat_ptracer33_max        =   6.7160821880751335E-03
(PID.TID 0000.0001) %MON trcstat_ptracer33_min        =  -4.6583817337326555E-34
(PID.TID 0000.0001) %MON trcstat_ptracer33_mean       =   1.5316474111528469E-05
(PID.TID 0000.0001) %MON trcstat_ptracer33_sd         =   2.1606264666744875E-04
(PID.TID 0000.0001) %MON trcstat_ptracer33_del2       =   5.4234989361546142E-06
(PID.TID 0000.0001) %MON trcstat_ptracer34_max        =   8.5369619797228263E-03
(PID.TID 0000.0001) %MON trcstat_ptracer34_min        =   1.1859717736200157E-48
(PID.TID 0000.0001) %MON trcstat_ptracer34_mean       =   2.1104639979183844E-05
(PID.TID 0000.0001) %MON trcstat_ptracer34_sd         =   2.7177142274334323E-04
(PID.TID 0000.0001) %MON trcstat_ptracer34_del2       =   5.2131981215842526E-06
(PID.TID 0000.0001) %MON trcstat_ptracer35_max        =   3.4087417106460621E-01
(PID.TID 0000.0001) %MON trcstat_ptracer35_min        =   8.9061264105297215E-31
(PID.TID 0000.0001) %MON trcstat_ptracer35_mean       =   2.2563650138470713E-03
(PID.TID 0000.0001) %MON trcstat_ptracer35_sd         =   1.6352020503933678E-02
(PID.TID 0000.0001) %MON trcstat_ptracer35_del2       =   1.2275799572641162E-04
(PID.TID 0000.0001) %MON trcstat_ptracer36_max        =   6.7160809260717507E-03
(PID.TID 0000.0001) %MON trcstat_ptracer36_min        =  -8.5063446367294955E-17
(PID.TID 0000.0001) %MON trcstat_ptracer36_mean       =   1.4978125803491854E-05
(PID.TID 0000.0001) %MON trcstat_ptracer36_sd         =   2.1608478790846396E-04
(PID.TID 0000.0001) %MON trcstat_ptracer36_del2       =   5.4234963197223553E-06
(PID.TID 0000.0001) %MON trcstat_ptracer37_max        =   6.7160809261973698E-03
(PID.TID 0000.0001) %MON trcstat_ptracer37_min        =  -5.8380408965737601E-16
(PID.TID 0000.0001) %MON trcstat_ptracer37_mean       =   1.4978125697659744E-05
(PID.TID 0000.0001) %MON trcstat_ptracer37_sd         =   2.1608478792830695E-04
(PID.TID 0000.0001) %MON trcstat_ptracer37_del2       =   5.4234963196560936E-06
(PID.TID 0000.0001) %MON trcstat_ptracer38_max        =   6.2875564204035858E-03
(PID.TID 0000.0001) %MON trcstat_ptracer38_min        =   8.9433908143418599E-15
(PID.TID 0000.0001) %MON trcstat_ptracer38_mean       =   1.2844161199724328E-05
(PID.TID 0000.0001) %MON trcstat_ptracer38_sd         =   1.9879092579166996E-04
(PID.TID 0000.0001) %MON trcstat_ptracer38_del2       =   5.5465275288092748E-06
(PID.TID 0000.0001) %MON trcstat_ptracer39_max        =   1.2483314391822189E-01
(PID.TID 0000.0001) %MON trcstat_ptracer39_min        =   6.5261383680681345E-12
(PID.TID 0000.0001) %MON trcstat_ptracer39_mean       =   2.7591750412176786E-03
(PID.TID 0000.0001) %MON trcstat_ptracer39_sd         =   9.9028521293036791E-03
(PID.TID 0000.0001) %MON trcstat_ptracer39_del2       =   7.7797772889480498E-05
(PID.TID 0000.0001) %MON trcstat_ptracer40_max        =   6.7160810063214282E-03
(PID.TID 0000.0001) %MON trcstat_ptracer40_min        =  -1.6270224190469553E-29
(PID.TID 0000.0001) %MON trcstat_ptracer40_mean       =   1.4980425513304707E-05
(PID.TID 0000.0001) %MON trcstat_ptracer40_sd         =   2.1608462936565309E-04
(PID.TID 0000.0001) %MON trcstat_ptracer40_del2       =   5.4234964129696096E-06
(PID.TID 0000.0001) %MON trcstat_ptracer41_max        =   1.2683365085271202E-02
(PID.TID 0000.0001) %MON trcstat_ptracer41_min        =   1.6924005730763635E-48
(PID.TID 0000.0001) %MON trcstat_ptracer41_mean       =   4.4477183087185977E-05
(PID.TID 0000.0001) %MON trcstat_ptracer41_sd         =   4.7252757397375799E-04
(PID.TID 0000.0001) %MON trcstat_ptracer41_del2       =   5.5356043993325099E-06
(PID.TID 0000.0001) %MON trcstat_ptracer42_max        =   6.4885558151931370E-03
(PID.TID 0000.0001) %MON trcstat_ptracer42_min        =  -7.4258941718532769E-19
(PID.TID 0000.0001) %MON trcstat_ptracer42_mean       =   1.3888117636628767E-05
(PID.TID 0000.0001) %MON trcstat_ptracer42_sd         =   2.1013862043384686E-04
(PID.TID 0000.0001) %MON trcstat_ptracer42_del2       =   5.4449905361532545E-06
(PID.TID 0000.0001) %MON trcstat_ptracer43_max        =   6.7160809260871437E-03
(PID.TID 0000.0001) %MON trcstat_ptracer43_min        =  -6.2159805773628303E-17
(PID.TID 0000.0001) %MON trcstat_ptracer43_mean       =   1.4978127824921952E-05
(PID.TID 0000.0001) %MON trcstat_ptracer43_sd         =   2.1608478776499561E-04
(PID.TID 0000.0001) %MON trcstat_ptracer43_del2       =   5.4234963199586606E-06
(PID.TID 0000.0001) %MON trcstat_ptracer44_max        =   6.7160809265698661E-03
(PID.TID 0000.0001) %MON trcstat_ptracer44_min        =  -9.3090822545178685E-33
(PID.TID 0000.0001) %MON trcstat_ptracer44_mean       =   1.4978181717151132E-05
(PID.TID 0000.0001) %MON trcstat_ptracer44_sd         =   2.1608478396531320E-04
(PID.TID 0000.0001) %MON trcstat_ptracer44_del2       =   5.4234963229267869E-06
(PID.TID 0000.0001) %MON trcstat_ptracer45_max        =   6.7161513069572045E-03
(PID.TID 0000.0001) %MON trcstat_ptracer45_min        =   9.3918339976630227E-49
(PID.TID 0000.0001) %MON trcstat_ptracer45_mean       =   1.6595085099736844E-05
(PID.TID 0000.0001) %MON trcstat_ptracer45_sd         =   2.1605970279298600E-04
(PID.TID 0000.0001) %MON trcstat_ptracer45_del2       =   5.4238045621256098E-06
(PID.TID 0000.0001) %MON trcstat_ptracer46_max        =   6.7844985183364353E-03
(PID.TID 0000.0001) %MON trcstat_ptracer46_min        =   1.1527462138715576E-48
(PID.TID 0000.0001) %MON trcstat_ptracer46_mean       =   1.9736674336267271E-05
(PID.TID 0000.0001) %MON trcstat_ptracer46_sd         =   2.7119131803302082E-04
(PID.TID 0000.0001) %MON trcstat_ptracer46_del2       =   4.9224993353276109E-06
(PID.TID 0000.0001) %MON trcstat_ptracer47_max        =   6.7161038876413391E-03
(PID.TID 0000.0001) %MON trcstat_ptracer47_min        =   1.2000000922218569E-48
(PID.TID 0000.0001) %MON trcstat_ptracer47_mean       =   1.6779495549475627E-05
(PID.TID 0000.0001) %MON trcstat_ptracer47_sd         =   2.1599687247224954E-04
(PID.TID 0000.0001) %MON trcstat_ptracer47_del2       =   5.4235717356031397E-06
(PID.TID 0000.0001) %MON trcstat_ptracer48_max        =   6.8938790887177514E-03
(PID.TID 0000.0001) %MON trcstat_ptracer48_min        =   5.3979399989963796E-48
(PID.TID 0000.0001) %MON trcstat_ptracer48_mean       =   1.7479143007206313E-05
(PID.TID 0000.0001) %MON trcstat_ptracer48_sd         =   2.5542746083288392E-04
(PID.TID 0000.0001) %MON trcstat_ptracer48_del2       =   5.0236493622826064E-06
(PID.TID 0000.0001) %MON trcstat_ptracer49_max        =   6.2875543796096951E-03
(PID.TID 0000.0001) %MON trcstat_ptracer49_min        =  -3.0920396209087316E-15
(PID.TID 0000.0001) %MON trcstat_ptracer49_mean       =   1.2723714757669865E-05
(PID.TID 0000.0001) %MON trcstat_ptracer49_sd         =   1.9879652240896038E-04
(PID.TID 0000.0001) %MON trcstat_ptracer49_del2       =   5.5465273532811046E-06
(PID.TID 0000.0001) %MON trcstat_ptracer50_max        =   6.7160809262004498E-03
(PID.TID 0000.0001) %MON trcstat_ptracer50_min        =  -5.1039529408168133E-16
(PID.TID 0000.0001) %MON trcstat_ptracer50_mean       =   1.4978125697515291E-05
(PID.TID 0000.0001) %MON trcstat_ptracer50_sd         =   2.1608478792727929E-04
(PID.TID 0000.0001) %MON trcstat_ptracer50_del2       =   5.4234963196598435E-06
(PID.TID 0000.0001) %MON trcstat_ptracer51_max        =   6.2875543795840663E-03
(PID.TID 0000.0001) %MON trcstat_ptracer51_min        =  -2.5603117599066435E-21
(PID.TID 0000.0001) %MON trcstat_ptracer51_mean       =   1.2723714795665347E-05
(PID.TID 0000.0001) %MON trcstat_ptracer51_sd         =   1.9879652240610188E-04
(PID.TID 0000.0001) %MON trcstat_ptracer51_del2       =   5.5465273532825979E-06
(PID.TID 0000.0001) %MON trcstat_ptracer52_max        =   3.5176039099414100E+00
(PID.TID 0000.0001) %MON trcstat_ptracer52_min        =   5.3459319148452563E-39
(PID.TID 0000.0001) %MON trcstat_ptracer52_mean       =   3.9944171200837167E-02
(PID.TID 0000.0001) %MON trcstat_ptracer52_sd         =   2.2163542487032487E-01
(PID.TID 0000.0001) %MON trcstat_ptracer52_del2       =   1.1350427046437227E-03
(PID.TID 0000.0001) %MON trcstat_ptracer53_max        =   6.4221068001889564E-02
(PID.TID 0000.0001) %MON trcstat_ptracer53_min        =   1.9529037883883024E-42
(PID.TID 0000.0001) %MON trcstat_ptracer53_mean       =   1.1612737164747708E-04
(PID.TID 0000.0001) %MON trcstat_ptracer53_sd         =   1.1594711611132861E-03
(PID.TID 0000.0001) %MON trcstat_ptracer53_del2       =   1.0782152817854687E-05
(PID.TID 0000.0001) %MON trcstat_ptracer54_max        =   1.2729864111264210E-02
(PID.TID 0000.0001) %MON trcstat_ptracer54_min        =   1.1904741120517671E-31
(PID.TID 0000.0001) %MON trcstat_ptracer54_mean       =   2.6076055864678032E-05
(PID.TID 0000.0001) %MON trcstat_ptracer54_sd         =   3.9386707893870995E-04
(PID.TID 0000.0001) %MON trcstat_ptracer54_del2       =   5.2669303447720954E-06
(PID.TID 0000.0001) %MON trcstat_ptracer55_max        =   9.4058555483037560E-03
(PID.TID 0000.0001) %MON trcstat_ptracer55_min        =   1.1755386188436202E-48
(PID.TID 0000.0001) %MON trcstat_ptracer55_mean       =   2.4517059857142337E-05
(PID.TID 0000.0001) %MON trcstat_ptracer55_sd         =   3.0685046740780506E-04
(PID.TID 0000.0001) %MON trcstat_ptracer55_del2       =   5.0131578039419947E-06
(PID.TID 0000.0001) %MON trcstat_ptracer56_max        =   9.2475517582183558E-03
(PID.TID 0000.0001) %MON trcstat_ptracer56_min        =  -7.4390681946994750E-30
(PID.TID 0000.0001) %MON trcstat_ptracer56_mean       =   2.4818747677033528E-05
(PID.TID 0000.0001) %MON trcstat_ptracer56_sd         =   3.5305634248372766E-04
(PID.TID 0000.0001) %MON trcstat_ptracer56_del2       =   4.7654336085242169E-06
(PID.TID 0000.0001) %MON trcstat_ptracer57_max        =   8.2128333719356864E-03
(PID.TID 0000.0001) %MON trcstat_ptracer57_min        =   7.9736904284561027E-28
(PID.TID 0000.0001) %MON trcstat_ptracer57_mean       =   1.8158387150885645E-05
(PID.TID 0000.0001) %MON trcstat_ptracer57_sd         =   2.8482963896816761E-04
(PID.TID 0000.0001) %MON trcstat_ptracer57_del2       =   4.9525893704286419E-06
(PID.TID 0000.0001) %MON trcstat_ptracer58_max        =   8.2835535352910571E-03
(PID.TID 0000.0001) %MON trcstat_ptracer58_min        =   1.1913681008879521E-48
(PID.TID 0000.0001) %MON trcstat_ptracer58_mean       =   2.0381874760658915E-05
(PID.TID 0000.0001) %MON trcstat_ptracer58_sd         =   2.6328216242003303E-04
(PID.TID 0000.0001) %MON trcstat_ptracer58_del2       =   5.2658513251495523E-06
(PID.TID 0000.0001) %MON trcstat_ptracer59_max        =   8.1233807771091508E-03
(PID.TID 0000.0001) %MON trcstat_ptracer59_min        =   1.1495083044078496E-48
(PID.TID 0000.0001) %MON trcstat_ptracer59_mean       =   2.9172609352293241E-05
(PID.TID 0000.0001) %MON trcstat_ptracer59_sd         =   3.5619893551756772E-04
(PID.TID 0000.0001) %MON trcstat_ptracer59_del2       =   4.6308942958829888E-06
(PID.TID 0000.0001) %MON trcstat_ptracer60_max        =   5.5955091554313774E-02
(PID.TID 0000.0001) %MON trcstat_ptracer60_min        =  -2.1475437762903746E-22
(PID.TID 0000.0001) %MON trcstat_ptracer60_mean       =   2.1939859106384250E-04
(PID.TID 0000.0001) %MON trcstat_ptracer60_sd         =   2.0573795352376613E-03
(PID.TID 0000.0001) %MON trcstat_ptracer60_del2       =   2.7430181135231421E-05
(PID.TID 0000.0001) %MON trcstat_ptracer61_max        =   6.4885563437893264E-03
(PID.TID 0000.0001) %MON trcstat_ptracer61_min        =   4.9468006174199615E-16
(PID.TID 0000.0001) %MON trcstat_ptracer61_mean       =   1.3888990959673409E-05
(PID.TID 0000.0001) %MON trcstat_ptracer61_sd         =   2.1013860533350304E-04
(PID.TID 0000.0001) %MON trcstat_ptracer61_del2       =   5.4449902954144130E-06
(PID.TID 0000.0001) %MON trcstat_ptracer62_max        =   6.7160809260808901E-03
(PID.TID 0000.0001) %MON trcstat_ptracer62_min        =  -6.1481025941139721E-17
(PID.TID 0000.0001) %MON trcstat_ptracer62_mean       =   1.4978128784028712E-05
(PID.TID 0000.0001) %MON trcstat_ptracer62_sd         =   2.1608478769569007E-04
(PID.TID 0000.0001) %MON trcstat_ptracer62_del2       =   5.4234963200674764E-06
(PID.TID 0000.0001) %MON trcstat_ptracer63_max        =   6.2875543795564755E-03
(PID.TID 0000.0001) %MON trcstat_ptracer63_min        =  -3.1693852180723597E-15
(PID.TID 0000.0001) %MON trcstat_ptracer63_mean       =   1.2723714757639463E-05
(PID.TID 0000.0001) %MON trcstat_ptracer63_sd         =   1.9879652240755249E-04
(PID.TID 0000.0001) %MON trcstat_ptracer63_del2       =   5.5465273532966951E-06
(PID.TID 0000.0001) %MON trcstat_ptracer64_max        =   6.2875543795122245E-03
(PID.TID 0000.0001) %MON trcstat_ptracer64_min        =  -7.6703530979491897E-23
(PID.TID 0000.0001) %MON trcstat_ptracer64_mean       =   1.2723714991387629E-05
(PID.TID 0000.0001) %MON trcstat_ptracer64_sd         =   1.9879652239006726E-04
(PID.TID 0000.0001) %MON trcstat_ptracer64_del2       =   5.5465273533070162E-06
(PID.TID 0000.0001) %MON trcstat_ptracer65_max        =   6.7160809259472739E-03
(PID.TID 0000.0001) %MON trcstat_ptracer65_min        =  -7.0363779823151999E-17
(PID.TID 0000.0001) %MON trcstat_ptracer65_mean       =   1.4978126278840374E-05
(PID.TID 0000.0001) %MON trcstat_ptracer65_sd         =   2.1608478786628907E-04
(PID.TID 0000.0001) %MON trcstat_ptracer65_del2       =   5.4234963198448168E-06
(PID.TID 0000.0001) %MON trcstat_ptracer66_max        =   6.7160809262110837E-03
(PID.TID 0000.0001) %MON trcstat_ptracer66_min        =  -3.2070499543220033E-16
(PID.TID 0000.0001) %MON trcstat_ptracer66_mean       =   1.4978125699483840E-05
(PID.TID 0000.0001) %MON trcstat_ptracer66_sd         =   2.1608478792789417E-04
(PID.TID 0000.0001) %MON trcstat_ptracer66_del2       =   5.4234963196570482E-06
(PID.TID 0000.0001) %MON trcstat_ptracer67_max        =   1.3736084507503570E-02
(PID.TID 0000.0001) %MON trcstat_ptracer67_min        =   9.3803184835652879E-29
(PID.TID 0000.0001) %MON trcstat_ptracer67_mean       =   2.9833476152897412E-05
(PID.TID 0000.0001) %MON trcstat_ptracer67_sd         =   4.1775358703774240E-04
(PID.TID 0000.0001) %MON trcstat_ptracer67_del2       =   5.4920863283725571E-06
(PID.TID 0000.0001) %MON trcstat_ptracer68_max        =   6.7160809286445954E-03
(PID.TID 0000.0001) %MON trcstat_ptracer68_min        =   1.1981322737831647E-48
(PID.TID 0000.0001) %MON trcstat_ptracer68_mean       =   1.4978292998680612E-05
(PID.TID 0000.0001) %MON trcstat_ptracer68_sd         =   2.1608477619468910E-04
(PID.TID 0000.0001) %MON trcstat_ptracer68_del2       =   5.4234963292426482E-06
(PID.TID 0000.0001) %MON trcstat_ptracer69_max        =   2.2825633352273118E+00
(PID.TID 0000.0001) %MON trcstat_ptracer69_min        =  -4.6291581999815983E-17
(PID.TID 0000.0001) %MON trcstat_ptracer69_mean       =   7.5128007146496451E-02
(PID.TID 0000.0001) %MON trcstat_ptracer69_sd         =   2.0146212574814801E-01
(PID.TID 0000.0001) %MON trcstat_ptracer69_del2       =   1.2068343674944491E-03
(PID.TID 0000.0001) %MON trcstat_ptracer70_max        =   6.4885558153352715E-03
(PID.TID 0000.0001) %MON trcstat_ptracer70_min        =  -1.6034012013721475E-16
(PID.TID 0000.0001) %MON trcstat_ptracer70_mean       =   1.3888117611274747E-05
(PID.TID 0000.0001) %MON trcstat_ptracer70_sd         =   2.1013862044132905E-04
(PID.TID 0000.0001) %MON trcstat_ptracer70_del2       =   5.4449905361145366E-06
(PID.TID 0000.0001) %MON trcstat_ptracer71_max        =   6.4969872925714021E-03
(PID.TID 0000.0001) %MON trcstat_ptracer71_min        =   5.9707138504922918E-35
(PID.TID 0000.0001) %MON trcstat_ptracer71_mean       =   1.6604899940562428E-05
(PID.TID 0000.0001) %MON trcstat_ptracer71_sd         =   2.1812318996490343E-04
(PID.TID 0000.0001) %MON trcstat_ptracer71_del2       =   5.3380389647416162E-06
(PID.TID 0000.0001) %MON trcstat_ptracer72_max        =   6.2875543795656913E-03
(PID.TID 0000.0001) %MON trcstat_ptracer72_min        =  -2.9404870413890985E-17
(PID.TID 0000.0001) %MON trcstat_ptracer72_mean       =   1.2723714759644214E-05
(PID.TID 0000.0001) %MON trcstat_ptracer72_sd         =   1.9879652240653773E-04
(PID.TID 0000.0001) %MON trcstat_ptracer72_del2       =   5.5465273532995072E-06
(PID.TID 0000.0001) %MON trcstat_ptracer73_max        =   6.2875543900119081E-03
(PID.TID 0000.0001) %MON trcstat_ptracer73_min        =   8.1248848098954335E-27
(PID.TID 0000.0001) %MON trcstat_ptracer73_mean       =   1.2723739760448536E-05
(PID.TID 0000.0001) %MON trcstat_ptracer73_sd         =   1.9879652170920982E-04
(PID.TID 0000.0001) %MON trcstat_ptracer73_del2       =   5.5465273475172080E-06
(PID.TID 0000.0001) %MON trcstat_ptracer74_max        =   6.2875543795312544E-03
(PID.TID 0000.0001) %MON trcstat_ptracer74_min        =  -1.6416116159769088E-15
(PID.TID 0000.0001) %MON trcstat_ptracer74_mean       =   1.2723714757456284E-05
(PID.TID 0000.0001) %MON trcstat_ptracer74_sd         =   1.9879652240527732E-04
(PID.TID 0000.0001) %MON trcstat_ptracer74_del2       =   5.5465273533170662E-06
(PID.TID 0000.0001) %MON trcstat_ptracer75_max        =   1.1563372694077193E+01
(PID.TID 0000.0001) %MON trcstat_ptracer75_min        =   3.9154933621702288E-13
(PID.TID 0000.0001) %MON trcstat_ptracer75_mean       =   8.1533559683941814E-01
(PID.TID 0000.0001) %MON trcstat_ptracer75_sd         =   1.2499489827991230E+00
(PID.TID 0000.0001) %MON trcstat_ptracer75_del2       =   7.5239554734345352E-03
(PID.TID 0000.0001) %MON trcstat_ptracer76_max        =   6.7160809264748119E-03
(PID.TID 0000.0001) %MON trcstat_ptracer76_min        =  -1.7801553757563745E-21
(PID.TID 0000.0001) %MON trcstat_ptracer76_mean       =   1.4978149687838470E-05
(PID.TID 0000.0001) %MON trcstat_ptracer76_sd         =   2.1608478621782065E-04
(PID.TID 0000.0001) %MON trcstat_ptracer76_del2       =   5.4234963217216758E-06
(PID.TID 0000.0001) %MON trcstat_ptracer77_max        =   6.7394709529278807E-03
(PID.TID 0000.0001) %MON trcstat_ptracer77_min        =   1.0473705014628884E-48
(PID.TID 0000.0001) %MON trcstat_ptracer77_mean       =   1.6951172544566516E-05
(PID.TID 0000.0001) %MON trcstat_ptracer77_sd         =   2.4144707482642684E-04
(PID.TID 0000.0001) %MON trcstat_ptracer77_del2       =   5.1421339830618686E-06
(PID.TID 0000.0001) %MON trcstat_ptracer78_max        =   1.7693726407651954E-02
(PID.TID 0000.0001) %MON trcstat_ptracer78_min        =  -6.4025918774347776E-41
(PID.TID 0000.0001) %MON trcstat_ptracer78_mean       =   6.2539544800837207E-05
(PID.TID 0000.0001) %MON trcstat_ptracer78_sd         =   6.2819084007913249E-04
(PID.TID 0000.0001) %MON trcstat_ptracer78_del2       =   5.5086829648420235E-06
(PID.TID 0000.0001) %MON trcstat_ptracer79_max        =   2.5533849764981982E+00
(PID.TID 0000.0001) %MON trcstat_ptracer79_min        =   2.5968499507541570E-33
(PID.TID 0000.0001) %MON trcstat_ptracer79_mean       =   1.6113645824277108E-02
(PID.TID 0000.0001) %MON trcstat_ptracer79_sd         =   1.0103079475887708E-01
(PID.TID 0000.0001) %MON trcstat_ptracer79_del2       =   5.9343214858073026E-04
(PID.TID 0000.0001) %MON trcstat_ptracer80_max        =   2.3194180193642461E-02
(PID.TID 0000.0001) %MON trcstat_ptracer80_min        =  -4.3001544464234664E-26
(PID.TID 0000.0001) %MON trcstat_ptracer80_mean       =   6.4854017479339305E-05
(PID.TID 0000.0001) %MON trcstat_ptracer80_sd         =   7.9389216815170386E-04
(PID.TID 0000.0001) %MON trcstat_ptracer80_del2       =   8.7017889398613707E-06
(PID.TID 0000.0001) %MON trcstat_ptracer81_max        =   6.7162844142026491E-03
(PID.TID 0000.0001) %MON trcstat_ptracer81_min        =   1.0115682715689556E-48
(PID.TID 0000.0001) %MON trcstat_ptracer81_mean       =   1.5044666441185282E-05
(PID.TID 0000.0001) %MON trcstat_ptracer81_sd         =   2.1609586531785022E-04
(PID.TID 0000.0001) %MON trcstat_ptracer81_del2       =   5.4234295419594884E-06
(PID.TID 0000.0001) %MON trcstat_ptracer82_max        =   6.2875543796097853E-03
(PID.TID 0000.0001) %MON trcstat_ptracer82_min        =  -3.0912574428382941E-15
(PID.TID 0000.0001) %MON trcstat_ptracer82_mean       =   1.2723714757679941E-05
(PID.TID 0000.0001) %MON trcstat_ptracer82_sd         =   1.9879652240905116E-04
(PID.TID 0000.0001) %MON trcstat_ptracer82_del2       =   5.5465273532802398E-06
(PID.TID 0000.0001) %MON trcstat_ptracer83_max        =   6.7160809261229719E-03
(PID.TID 0000.0001) %MON trcstat_ptracer83_min        =  -2.2534293845650168E-16
(PID.TID 0000.0001) %MON trcstat_ptracer83_mean       =   1.4978125697238779E-05
(PID.TID 0000.0001) %MON trcstat_ptracer83_sd         =   2.1608478792088957E-04
(PID.TID 0000.0001) %MON trcstat_ptracer83_del2       =   5.4234963197171334E-06
(PID.TID 0000.0001) %MON trcstat_ptracer84_max        =   6.7160809262158516E-03
(PID.TID 0000.0001) %MON trcstat_ptracer84_min        =  -1.3626434516072474E-16
(PID.TID 0000.0001) %MON trcstat_ptracer84_mean       =   1.4978125712980991E-05
(PID.TID 0000.0001) %MON trcstat_ptracer84_sd         =   2.1608478792636544E-04
(PID.TID 0000.0001) %MON trcstat_ptracer84_del2       =   5.4234963196601145E-06
(PID.TID 0000.0001) %MON trcstat_ptracer85_max        =   7.5904337762751428E+00
(PID.TID 0000.0001) %MON trcstat_ptracer85_min        =   5.5374921837210553E-28
(PID.TID 0000.0001) %MON trcstat_ptracer85_mean       =   4.4243044391546371E-01
(PID.TID 0000.0001) %MON trcstat_ptracer85_sd         =   9.5958716129934829E-01
(PID.TID 0000.0001) %MON trcstat_ptracer85_del2       =   3.5990363071408673E-03
(PID.TID 0000.0001) %MON trcstat_ptracer86_max        =   6.4885558153515615E-03
(PID.TID 0000.0001) %MON trcstat_ptracer86_min        =  -1.6307328206467865E-16
(PID.TID 0000.0001) %MON trcstat_ptracer86_mean       =   1.3888117611271550E-05
(PID.TID 0000.0001) %MON trcstat_ptracer86_sd         =   2.1013862044137394E-04
(PID.TID 0000.0001) %MON trcstat_ptracer86_del2       =   5.4449905361162273E-06
(PID.TID 0000.0001) %MON trcstat_ptracer87_max        =   2.9091624759902453E-02
(PID.TID 0000.0001) %MON trcstat_ptracer87_min        =   2.8300201843640218E-22
(PID.TID 0000.0001) %MON trcstat_ptracer87_mean       =   6.6222467185079323E-05
(PID.TID 0000.0001) %MON trcstat_ptracer87_sd         =   8.5355120191024777E-04
(PID.TID 0000.0001) %MON trcstat_ptracer87_del2       =   1.1769889384256289E-05
(PID.TID 0000.0001) %MON trcstat_ptracer88_max        =   3.9441592086043684E-02
(PID.TID 0000.0001) %MON trcstat_ptracer88_min        =   1.0759004142768846E-40
(PID.TID 0000.0001) %MON trcstat_ptracer88_mean       =   1.9917449110001684E-04
(PID.TID 0000.0001) %MON trcstat_ptracer88_sd         =   1.6449240955052650E-03
(PID.TID 0000.0001) %MON trcstat_ptracer88_del2       =   1.2259419036672309E-05
(PID.TID 0000.0001) %MON trcstat_ptracer89_max        =   8.9003370362050893E-01
(PID.TID 0000.0001) %MON trcstat_ptracer89_min        =   4.0867672350394279E-31
(PID.TID 0000.0001) %MON trcstat_ptracer89_mean       =   1.2954623807030850E-02
(PID.TID 0000.0001) %MON trcstat_ptracer89_sd         =   5.1372757518708421E-02
(PID.TID 0000.0001) %MON trcstat_ptracer89_del2       =   4.1117527353844326E-04
(PID.TID 0000.0001) %MON trcstat_ptracer90_max        =   6.2875551366094844E-03
(PID.TID 0000.0001) %MON trcstat_ptracer90_min        =   1.4893951594055221E-26
(PID.TID 0000.0001) %MON trcstat_ptracer90_mean       =   1.2723857100579666E-05
(PID.TID 0000.0001) %MON trcstat_ptracer90_sd         =   1.9879656357343168E-04
(PID.TID 0000.0001) %MON trcstat_ptracer90_del2       =   5.5465270955659560E-06
(PID.TID 0000.0001) %MON trcstat_ptracer91_max        =   6.7160809262126198E-03
(PID.TID 0000.0001) %MON trcstat_ptracer91_min        =  -5.0819751305603917E-16
(PID.TID 0000.0001) %MON trcstat_ptracer91_mean       =   1.4978125697484125E-05
(PID.TID 0000.0001) %MON trcstat_ptracer91_sd         =   2.1608478792718114E-04
(PID.TID 0000.0001) %MON trcstat_ptracer91_del2       =   5.4234963196608675E-06
(PID.TID 0000.0001) %MON trcstat_ptracer92_max        =   6.2875543795201964E-03
(PID.TID 0000.0001) %MON trcstat_ptracer92_min        =  -3.2257890776075285E-15
(PID.TID 0000.0001) %MON trcstat_ptracer92_mean       =   1.2723714757411964E-05
(PID.TID 0000.0001) %MON trcstat_ptracer92_sd         =   1.9879652240523352E-04
(PID.TID 0000.0001) %MON trcstat_ptracer92_del2       =   5.5465273533163759E-06
(PID.TID 0000.0001) %MON trcstat_ptracer93_max        =   9.7779318231865919E-02
(PID.TID 0000.0001) %MON trcstat_ptracer93_min        =   1.2000000000826991E-48
(PID.TID 0000.0001) %MON trcstat_ptracer93_mean       =   1.8980839890681976E-04
(PID.TID 0000.0001) %MON trcstat_ptracer93_sd         =   1.9098566990601896E-03
(PID.TID 0000.0001) %MON trcstat_ptracer93_del2       =   1.6031092588167401E-05
(PID.TID 0000.0001) %MON trcstat_ptracer94_max        =   8.8525918470716714E-03
(PID.TID 0000.0001) %MON trcstat_ptracer94_min        =  -1.2171296631000868E-21
(PID.TID 0000.0001) %MON trcstat_ptracer94_mean       =   2.4659671885258861E-05
(PID.TID 0000.0001) %MON trcstat_ptracer94_sd         =   3.4451638670664685E-04
(PID.TID 0000.0001) %MON trcstat_ptracer94_del2       =   4.7386781454685243E-06
(PID.TID 0000.0001) %MON trcstat_ptracer95_max        =   6.4885558152287318E-03
(PID.TID 0000.0001) %MON trcstat_ptracer95_min        =  -1.1863460412188218E-19
(PID.TID 0000.0001) %MON trcstat_ptracer95_mean       =   1.3888117644397874E-05
(PID.TID 0000.0001) %MON trcstat_ptracer95_sd         =   2.1013862043416204E-04
(PID.TID 0000.0001) %MON trcstat_ptracer95_del2       =   5.4449905361492861E-06
(PID.TID 0000.0001) %MON trcstat_ptracer96_max        =   8.3577425651905435E-01
(PID.TID 0000.0001) %MON trcstat_ptracer96_min        =   8.2139158664696863E-31
(PID.TID 0000.0001) %MON trcstat_ptracer96_mean       =   5.6466555035307384E-02
(PID.TID 0000.0001) %MON trcstat_ptracer96_sd         =   1.3259546558537785E-01
(PID.TID 0000.0001) %MON trcstat_ptracer96_del2       =   4.3168497783822017E-04
(PID.TID 0000.0001) %MON trcstat_ptracer97_max        =   1.0126026589248502E+01
(PID.TID 0000.0001) %MON trcstat_ptracer97_min        =   1.0392950362084115E-20
(PID.TID 0000.0001) %MON trcstat_ptracer97_mean       =   2.0380324698912350E-01
(PID.TID 0000.0001) %MON trcstat_ptracer97_sd         =   8.9779252152024303E-01
(PID.TID 0000.0001) %MON trcstat_ptracer97_del2       =   3.8640861797428721E-03
(PID.TID 0000.0001) %MON exf_tsnumber                 =                188388
(PID.TID 0000.0001) %MON exf_time_sec                 =   2.2606560000000000E+08
(PID.TID 0000.0001) %MON exf_ustress_max              =   2.9394391776597167E-01
(PID.TID 0000.0001) %MON exf_ustress_min              =  -3.1761488519510273E-02
(PID.TID 0000.0001) %MON exf_ustress_mean             =   8.5937350050417166E-02
(PID.TID 0000.0001) %MON exf_ustress_sd               =   8.1385339580268654E-02
(PID.TID 0000.0001) %MON exf_ustress_del2             =   6.5554613890345597E-05
(PID.TID 0000.0001) %MON exf_vstress_max              =   1.7334424427600822E-01
(PID.TID 0000.0001) %MON exf_vstress_min              =  -2.1185366257222527E-01
(PID.TID 0000.0001) %MON exf_vstress_mean             =  -2.3236325630763568E-02
(PID.TID 0000.0001) %MON exf_vstress_sd               =   8.3876164517816529E-02
(PID.TID 0000.0001) %MON exf_vstress_del2             =   6.1706239331491212E-05
(PID.TID 0000.0001) %MON exf_hflux_max                =   6.1541024589327634E+01
(PID.TID 0000.0001) %MON exf_hflux_min                =  -1.8300501005521983E+02
(PID.TID 0000.0001) %MON exf_hflux_mean               =  -8.1771934264864854E+01
(PID.TID 0000.0001) %MON exf_hflux_sd                 =   5.9618160702139669E+01
(PID.TID 0000.0001) %MON exf_hflux_del2               =   7.4952580086832810E-01
(PID.TID 0000.0001) %MON exf_sflux_max                =   1.4030410288186672E-08
(PID.TID 0000.0001) %MON exf_sflux_min                =  -3.1155560795421053E-07
(PID.TID 0000.0001) %MON exf_sflux_mean               =  -1.0170357765268858E-07
(PID.TID 0000.0001) %MON exf_sflux_sd                 =   7.8656188660321958E-08
(PID.TID 0000.0001) %MON exf_sflux_del2               =   1.2843940037440500E-09
(PID.TID 0000.0001) %MON exf_uwind_max                =   1.2317190647434675E+01
(PID.TID 0000.0001) %MON exf_uwind_min                =  -2.3903590206673742E+00
(PID.TID 0000.0001) %MON exf_uwind_mean               =   6.0492167415949112E+00
(PID.TID 0000.0001) %MON exf_uwind_sd                 =   3.6622264422297519E+00
(PID.TID 0000.0001) %MON exf_uwind_del2               =   5.3353177547235217E-02
(PID.TID 0000.0001) %MON exf_vwind_max                =   1.0789716630427980E+01
(PID.TID 0000.0001) %MON exf_vwind_min                =  -9.1261856514073170E+00
(PID.TID 0000.0001) %MON exf_vwind_mean               =  -1.3315521434182331E+00
(PID.TID 0000.0001) %MON exf_vwind_sd                 =   5.5914773814023029E+00
(PID.TID 0000.0001) %MON exf_vwind_del2               =   4.9788827979912034E-02
(PID.TID 0000.0001) %MON exf_wspeed_max               =   1.4160725157879011E+01
(PID.TID 0000.0001) %MON exf_wspeed_min               =   3.8459773364918668E+00
(PID.TID 0000.0001) %MON exf_wspeed_mean              =   8.7455992974872760E+00
(PID.TID 0000.0001) %MON exf_wspeed_sd                =   2.5606774584324636E+00
(PID.TID 0000.0001) %MON exf_wspeed_del2              =   7.2797188189894640E-02
(PID.TID 0000.0001) %MON exf_atemp_max                =   2.7988827275952491E+02
(PID.TID 0000.0001) %MON exf_atemp_min                =   2.6683249899485168E+02
(PID.TID 0000.0001) %MON exf_atemp_mean               =   2.7521584073434735E+02
(PID.TID 0000.0001) %MON exf_atemp_sd                 =   2.5892937073677897E+00
(PID.TID 0000.0001) %MON exf_atemp_del2               =   1.8775445471134210E-02
(PID.TID 0000.0001) %MON exf_aqh_max                  =   6.0824245051496750E-03
(PID.TID 0000.0001) %MON exf_aqh_min                  =   2.3838363815137640E-03
(PID.TID 0000.0001) %MON exf_aqh_mean                 =   4.3398602863578281E-03
(PID.TID 0000.0001) %MON exf_aqh_sd                   =   7.4961998284994496E-04
(PID.TID 0000.0001) %MON exf_aqh_del2                 =   2.9513031600969912E-05
(PID.TID 0000.0001) %MON exf_lwflux_max               =   8.1704897678893360E+01
(PID.TID 0000.0001) %MON exf_lwflux_min               =   6.7007804364508843E+00
(PID.TID 0000.0001) %MON exf_lwflux_mean              =   3.8521840858567806E+01
(PID.TID 0000.0001) %MON exf_lwflux_sd                =   1.8708438712986730E+01
(PID.TID 0000.0001) %MON exf_lwflux_del2              =   2.6747642069133332E-01
(PID.TID 0000.0001) %MON exf_precip_max               =   3.1273821905607509E-07
(PID.TID 0000.0001) %MON exf_precip_min               =   3.3477852854883342E-11
(PID.TID 0000.0001) %MON exf_precip_mean              =   9.8075315917480652E-08
(PID.TID 0000.0001) %MON exf_precip_sd                =   7.7738114954623821E-08
(PID.TID 0000.0001) %MON exf_precip_del2              =   1.3141098344281797E-09
(PID.TID 0000.0001) %MON exf_swflux_max               =  -9.3170662713583354E+01
(PID.TID 0000.0001) %MON exf_swflux_min               =  -2.0946293795909762E+02
(PID.TID 0000.0001) %MON exf_swflux_mean              =  -1.3996295759359020E+02
(PID.TID 0000.0001) %MON exf_swflux_sd                =   2.9093274456610519E+01
(PID.TID 0000.0001) %MON exf_swflux_del2              =   9.3316808009631858E-01
(PID.TID 0000.0001) %MON exf_evap_max                 =   2.6727244315913114E-08
(PID.TID 0000.0001) %MON exf_evap_min                 =  -1.4510406179073372E-08
(PID.TID 0000.0001) %MON exf_evap_mean                =   5.0354480822051371E-09
(PID.TID 0000.0001) %MON exf_evap_sd                  =   8.7799952520969037E-09
(PID.TID 0000.0001) %MON exf_evap_del2                =   8.9452426572479750E-11
(PID.TID 0000.0001) %MON exf_swdown_max               =   2.4642698583423248E+02
(PID.TID 0000.0001) %MON exf_swdown_min               =   1.0961254436892159E+02
(PID.TID 0000.0001) %MON exf_swdown_mean              =   1.6466230305128249E+02
(PID.TID 0000.0001) %MON exf_swdown_sd                =   3.4227381713659440E+01
(PID.TID 0000.0001) %MON exf_swdown_del2              =   1.0978448001133161E+00
(PID.TID 0000.0001) %MON exf_lwdown_max               =   3.0646818022017055E+02
(PID.TID 0000.0001) %MON exf_lwdown_min               =   2.4299730831545475E+02
(PID.TID 0000.0001) %MON exf_lwdown_mean              =   2.7653909714197744E+02
(PID.TID 0000.0001) %MON exf_lwdown_sd                =   1.4929120997289791E+01
(PID.TID 0000.0001) %MON exf_lwdown_del2              =   2.0802790075976501E+00
(PID.TID 0000.0001) %MON exf_runoff_max               =   7.4975011851692206E-08
(PID.TID 0000.0001) %MON exf_runoff_min               =   0.0000000000000000E+00
(PID.TID 0000.0001) %MON exf_runoff_mean              =   8.6637098174130328E-09
(PID.TID 0000.0001) %MON exf_runoff_sd                =   1.9487938307725037E-08
(PID.TID 0000.0001) %MON exf_runoff_del2              =   6.8076164467882094E-11
(PID.TID 0000.0001) %MON exf_climsss_max              =   3.4374380765675554E+01
(PID.TID 0000.0001) %MON exf_climsss_min              =   2.9702162078915624E+00
(PID.TID 0000.0001) %MON exf_climsss_mean             =   1.2720684664496094E+01
(PID.TID 0000.0001) %MON exf_climsss_sd               =   1.0010476552237474E+01
(PID.TID 0000.0001) %MON exf_climsss_del2             =   3.2300386746811440E-03
(PID.TID 0000.0001) %MON time_tsnumber                =                188389
(PID.TID 0000.0001) %MON time_secondsf                =   2.2606680000000000E+08
(PID.TID 0000.0001) %MON dynstat_eta_max              =   6.6739077337177377E-01
(PID.TID 0000.0001) %MON dynstat_eta_min              =   3.0675525448124016E-02
(PID.TID 0000.0001) %MON dynstat_eta_mean             =   3.7231676890311211E-01
(PID.TID 0000.0001) %MON dynstat_eta_sd               =   1.5399183816944059E-01
(PID.TID 0000.0001) %MON dynstat_eta_del2             =   3.3763504924091010E-04
(PID.TID 0000.0001) %MON dynstat_uvel_max             =   4.0427657839207454E-01
(PID.TID 0000.0001) %MON dynstat_uvel_min             =  -3.3655196722429881E-01
(PID.TID 0000.0001) %MON dynstat_uvel_mean            =   6.7439972070299529E-03
(PID.TID 0000.0001) %MON dynstat_uvel_sd              =   6.1690881997096762E-02
(PID.TID 0000.0001) %MON dynstat_uvel_del2            =   9.6636766508008561E-04
(PID.TID 0000.0001) %MON dynstat_vvel_max             =   2.6916656574658576E-01
(PID.TID 0000.0001) %MON dynstat_vvel_min             =  -4.5081903394335432E-01
(PID.TID 0000.0001) %MON dynstat_vvel_mean            =   2.0504005403249748E-03
(PID.TID 0000.0001) %MON dynstat_vvel_sd              =   6.4368072125081013E-02
(PID.TID 0000.0001) %MON dynstat_vvel_del2            =   1.1524019503824181E-03
(PID.TID 0000.0001) %MON dynstat_wvel_max             =   4.9719185139671064E-04
(PID.TID 0000.0001) %MON dynstat_wvel_min             =  -5.0624886606827769E-04
(PID.TID 0000.0001) %MON dynstat_wvel_mean            =  -2.6297873252593503E-06
(PID.TID 0000.0001) %MON dynstat_wvel_sd              =   7.5567591105547651E-05
(PID.TID 0000.0001) %MON dynstat_wvel_del2            =   2.0394041233717650E-06
(PID.TID 0000.0001) %MON dynstat_theta_max            =   7.9699950461211202E+00
(PID.TID 0000.0001) %MON dynstat_theta_min            =  -1.6134226791279167E+00
(PID.TID 0000.0001) %MON dynstat_theta_mean           =   3.7801369357867105E+00
(PID.TID 0000.0001) %MON dynstat_theta_sd             =   2.2016206706930239E+00
(PID.TID 0000.0001) %MON dynstat_theta_del2           =   6.0389194781325199E-03
(PID.TID 0000.0001) %MON dynstat_salt_max             =   3.4927789890300474E+01
(PID.TID 0000.0001) %MON dynstat_salt_min             =   5.6522079502423717E+00
(PID.TID 0000.0001) %MON dynstat_salt_mean            =   1.5353300320654213E+01
(PID.TID 0000.0001) %MON dynstat_salt_sd              =   1.1951757719851614E+01
(PID.TID 0000.0001) %MON dynstat_salt_del2            =   3.5920630840357085E-03
(PID.TID 0000.0001) %MON forcing_qnet_max             =   4.2608809865052126E+02
(PID.TID 0000.0001) %MON forcing_qnet_min             =  -1.8300501005521983E+02
(PID.TID 0000.0001) %MON forcing_qnet_mean            =  -6.4364034466141206E+01
(PID.TID 0000.0001) %MON forcing_qnet_sd              =   6.3270439403057097E+01
(PID.TID 0000.0001) %MON forcing_qnet_del2            =   1.6067867761528938E+00
(PID.TID 0000.0001) %MON forcing_qsw_max              =   0.0000000000000000E+00
(PID.TID 0000.0001) %MON forcing_qsw_min              =  -2.0946293795909762E+02
(PID.TID 0000.0001) %MON forcing_qsw_mean             =  -1.1357354970358710E+02
(PID.TID 0000.0001) %MON forcing_qsw_sd               =   6.3108938443044082E+01
(PID.TID 0000.0001) %MON forcing_qsw_del2             =   5.2356272881947741E-01
(PID.TID 0000.0001) %MON forcing_empmr_max            =   4.4103518592870592E-05
(PID.TID 0000.0001) %MON forcing_empmr_min            =  -1.6106471196477303E-03
(PID.TID 0000.0001) %MON forcing_empmr_mean           =  -1.0311617964859879E-04
(PID.TID 0000.0001) %MON forcing_empmr_sd             =   1.1774771410081479E-04
(PID.TID 0000.0001) %MON forcing_empmr_del2           =   5.0219648308641744E-06
(PID.TID 0000.0001) %MON forcing_fu_max               =   2.9264759531240292E-01
(PID.TID 0000.0001) %MON forcing_fu_min               =  -8.9097431622272100E-02
(PID.TID 0000.0001) %MON forcing_fu_mean              =   8.6474171419049228E-02
(PID.TID 0000.0001) %MON forcing_fu_sd                =   8.4852611456677274E-02
(PID.TID 0000.0001) %MON forcing_fu_del2              =   3.0552332311352946E-04
(PID.TID 0000.0001) %MON forcing_fv_max               =   1.6024261412379073E-01
(PID.TID 0000.0001) %MON forcing_fv_min               =  -2.1173279725226002E-01
(PID.TID 0000.0001) %MON forcing_fv_mean              =  -3.6188983438534141E-02
(PID.TID 0000.0001) %MON forcing_fv_sd                =   6.9804120279281165E-02
(PID.TID 0000.0001) %MON forcing_fv_del2              =   3.1376901788290369E-04
(PID.TID 0000.0001) %MON advcfl_uvel_max              =   2.3209290608538581E-02
(PID.TID 0000.0001) %MON advcfl_vvel_max              =   3.3115243422525170E-02
(PID.TID 0000.0001) %MON advcfl_wvel_max              =   5.9663022167605280E-02
(PID.TID 0000.0001) %MON advcfl_W_hf_max              =   5.9663022167605273E-02
(PID.TID 0000.0001) %MON pe_b_mean                    =   1.3735225265298840E-02
(PID.TID 0000.0001) %MON ke_max                       =   1.1040936887650399E-01
(PID.TID 0000.0001) %MON ke_mean                      =   3.2314593333336280E-03
(PID.TID 0000.0001) %MON ke_vol                       =   2.7634533915293965E+13
(PID.TID 0000.0001) %MON vort_r_min                   =  -3.7118806268861448E-05
(PID.TID 0000.0001) %MON vort_r_max                   =   3.2860433362046281E-05
(PID.TID 0000.0001) %MON vort_a_mean                  =   1.2397552904773663E-04
(PID.TID 0000.0001) %MON vort_a_sd                    =   6.2859746485534386E-06
(PID.TID 0000.0001) %MON vort_p_mean                  =   1.7325641031781352E-04
(PID.TID 0000.0001) %MON vort_p_sd                    =   1.0960951784804976E-04
(PID.TID 0000.0001) %MON surfExpan_theta_mean         =  -6.9516215916174611E-07
(PID.TID 0000.0001) %MON surfExpan_salt_mean          =   1.3599550467715539E-06
(PID.TID 0000.0001) %MON obc_W_uVel_max               =   7.0330339349901308E-02
(PID.TID 0000.0001) %MON obc_W_uVel_min               =  -1.2529555313121223E-02
(PID.TID 0000.0001) %MON obc_W_uVel_mean              =   2.2512043378252779E-02
(PID.TID 0000.0001) %MON obc_W_uVel_sd                =   2.5884347187124308E-02
(PID.TID 0000.0001) %MON obc_W_uVel_Int               =   4.7346263828587558E+04
(PID.TID 0000.0001) %MON obc_N_vVel_max               =   1.8571503468549966E-01
(PID.TID 0000.0001) %MON obc_N_vVel_min               =  -2.5383893785173772E-01
(PID.TID 0000.0001) %MON obc_N_vVel_mean              =   1.5196918494238326E-03
(PID.TID 0000.0001) %MON obc_N_vVel_sd                =   8.5437537050352882E-02
(PID.TID 0000.0001) %MON obc_N_vVel_Int               =   4.7676542931688600E+04
(PID.TID 0000.0001) %MON seaice_tsnumber              =                188389
(PID.TID 0000.0001) %MON seaice_time_sec              =   2.2606680000000000E+08
(PID.TID 0000.0001) %MON seaice_uice_max              =   5.8515150494269552E-01
(PID.TID 0000.0001) %MON seaice_uice_min              =  -2.5886001217234644E-01
(PID.TID 0000.0001) %MON seaice_uice_mean             =   1.2025880627703739E-01
(PID.TID 0000.0001) %MON seaice_uice_sd               =   1.1231224998278951E-01
(PID.TID 0000.0001) %MON seaice_uice_del2             =   2.8175574714442687E-03
(PID.TID 0000.0001) %MON seaice_vice_max              =   3.7906294251863065E-01
(PID.TID 0000.0001) %MON seaice_vice_min              =  -5.8726179613887886E-01
(PID.TID 0000.0001) %MON seaice_vice_mean             =  -6.6551239672309997E-02
(PID.TID 0000.0001) %MON seaice_vice_sd               =   1.1432497547756384E-01
(PID.TID 0000.0001) %MON seaice_vice_del2             =   2.9463470341383625E-03
(PID.TID 0000.0001) %MON seaice_area_max              =   1.0000000000000000E+00
(PID.TID 0000.0001) %MON seaice_area_min              =   0.0000000000000000E+00
(PID.TID 0000.0001) %MON seaice_area_mean             =   2.2612715013108431E-01
(PID.TID 0000.0001) %MON seaice_area_sd               =   3.8528175576777363E-01
(PID.TID 0000.0001) %MON seaice_area_del2             =   4.4965123179403679E-03
(PID.TID 0000.0001) %MON seaice_heff_max              =   1.0116090115476246E+00
(PID.TID 0000.0001) %MON seaice_heff_min              =   0.0000000000000000E+00
(PID.TID 0000.0001) %MON seaice_heff_mean             =   1.2506971106897136E-01
(PID.TID 0000.0001) %MON seaice_heff_sd               =   2.4315272028292173E-01
(PID.TID 0000.0001) %MON seaice_heff_del2             =   2.2345045032948988E-03
(PID.TID 0000.0001) %MON seaice_hsnow_max             =   2.7600629229773704E-01
(PID.TID 0000.0001) %MON seaice_hsnow_min             =   0.0000000000000000E+00
(PID.TID 0000.0001) %MON seaice_hsnow_mean            =   3.0769228368943191E-02
(PID.TID 0000.0001) %MON seaice_hsnow_sd              =   6.4230782387451724E-02
(PID.TID 0000.0001) %MON seaice_hsnow_del2            =   3.7626402237709948E-04
(PID.TID 0000.0001) %MON seaice_sitracer01_max        =   1.2000000000000000E+03
(PID.TID 0000.0001) %MON seaice_sitracer01_min        =   0.0000000000000000E+00
(PID.TID 0000.0001) %MON seaice_sitracer01_mean       =   3.4960261201289615E+02
(PID.TID 0000.0001) %MON seaice_sitracer01_sd         =   5.4525328801322769E+02
(PID.TID 0000.0001) %MON seaice_sitracer01_del2       =   8.7038739919080257E+00
(PID.TID 0000.0001) %MON seaice_sitracer02_max        =   1.0000000000000000E+00
(PID.TID 0000.0001) %MON seaice_sitracer02_min        =   0.0000000000000000E+00
(PID.TID 0000.0001) %MON seaice_sitracer02_mean       =   2.9969507061538603E-01
(PID.TID 0000.0001) %MON seaice_sitracer02_sd         =   4.5812436659080347E-01
(PID.TID 0000.0001) %MON seaice_sitracer02_del2       =   7.3570984585978674E-03
(PID.TID 0000.0001) %MON trcstat_ptracer01_max        =                      NAN
(PID.TID 0000.0001) %MON trcstat_ptracer01_min        =                      NAN
(PID.TID 0000.0001) %MON trcstat_ptracer01_mean       =                      NAN
(PID.TID 0000.0001) %MON trcstat_ptracer01_sd         =                      NAN
(PID.TID 0000.0001) %MON trcstat_ptracer01_del2       =                      NAN
(PID.TID 0000.0001) %MON trcstat_ptracer02_max        =   2.4305137575841443E-01
(PID.TID 0000.0001) %MON trcstat_ptracer02_min        =   2.2577044577389664E-07
(PID.TID 0000.0001) %MON trcstat_ptracer02_mean       =   1.3449360080332297E-02
(PID.TID 0000.0001) %MON trcstat_ptracer02_sd         =   1.7619956620531060E-02
(PID.TID 0000.0001) %MON trcstat_ptracer02_del2       =   8.4222802180806283E-04
(PID.TID 0000.0001) %MON trcstat_ptracer03_max        =   2.3339676617149165E+00
(PID.TID 0000.0001) %MON trcstat_ptracer03_min        =   3.0205735866788172E-05
(PID.TID 0000.0001) %MON trcstat_ptracer03_mean       =   1.5995987090304051E-01
(PID.TID 0000.0001) %MON trcstat_ptracer03_sd         =   1.8964186072443465E-01
(PID.TID 0000.0001) %MON trcstat_ptracer03_del2       =   7.1034394688865667E-04
(PID.TID 0000.0001) %MON trcstat_ptracer04_max        =   4.4160932384588179E+01
(PID.TID 0000.0001) %MON trcstat_ptracer04_min        =   1.4930485379833847E-02
(PID.TID 0000.0001) %MON trcstat_ptracer04_mean       =   4.5817299800635887E+00
(PID.TID 0000.0001) %MON trcstat_ptracer04_sd         =   6.6983685233430865E+00
(PID.TID 0000.0001) %MON trcstat_ptracer04_del2       =   1.2511068872280706E-02
(PID.TID 0000.0001) %MON trcstat_ptracer05_max        =   4.3206435651439410E+00
(PID.TID 0000.0001) %MON trcstat_ptracer05_min        =   3.7999514852100340E-02
(PID.TID 0000.0001) %MON trcstat_ptracer05_mean       =   5.9105006267805482E-01
(PID.TID 0000.0001) %MON trcstat_ptracer05_sd         =   5.1754466647688968E-01
(PID.TID 0000.0001) %MON trcstat_ptracer05_del2       =   8.6367196316671304E-04
(PID.TID 0000.0001) %MON trcstat_ptracer06_max        =   1.5669735835520265E+02
(PID.TID 0000.0001) %MON trcstat_ptracer06_min        =   6.2855933577144252E-02
(PID.TID 0000.0001) %MON trcstat_ptracer06_mean       =   1.4711764707131650E+01
(PID.TID 0000.0001) %MON trcstat_ptracer06_sd         =   1.7084679558099797E+01
(PID.TID 0000.0001) %MON trcstat_ptracer06_del2       =   2.7914384362429302E-02
(PID.TID 0000.0001) %MON trcstat_ptracer07_max        =   1.3876604593124481E-03
(PID.TID 0000.0001) %MON trcstat_ptracer07_min        =   5.8883013938814755E-04
(PID.TID 0000.0001) %MON trcstat_ptracer07_mean       =   1.0854240798374155E-03
(PID.TID 0000.0001) %MON trcstat_ptracer07_sd         =   1.4542936144249202E-04
(PID.TID 0000.0001) %MON trcstat_ptracer07_del2       =   4.5503845274275660E-07
(PID.TID 0000.0001) %MON trcstat_ptracer08_max        =   3.3993280949277398E+01
(PID.TID 0000.0001) %MON trcstat_ptracer08_min        =   1.0007214841389459E-05
(PID.TID 0000.0001) %MON trcstat_ptracer08_mean       =   7.0074318150466173E+00
(PID.TID 0000.0001) %MON trcstat_ptracer08_sd         =   6.8284826281556503E+00
(PID.TID 0000.0001) %MON trcstat_ptracer08_del2       =   1.7648622126860615E-02
(PID.TID 0000.0001) %MON trcstat_ptracer09_max        =   4.5324374599036528E+00
(PID.TID 0000.0001) %MON trcstat_ptracer09_min        =   1.3342953121852612E-06
(PID.TID 0000.0001) %MON trcstat_ptracer09_mean       =   9.3432424200621567E-01
(PID.TID 0000.0001) %MON trcstat_ptracer09_sd         =   9.1046435042075335E-01
(PID.TID 0000.0001) %MON trcstat_ptracer09_del2       =   2.3531496169147486E-03
(PID.TID 0000.0001) %MON trcstat_ptracer10_max        =   2.8327734124397830E-01
(PID.TID 0000.0001) %MON trcstat_ptracer10_min        =   8.3393457011578822E-08
(PID.TID 0000.0001) %MON trcstat_ptracer10_mean       =   5.8395265125388479E-02
(PID.TID 0000.0001) %MON trcstat_ptracer10_sd         =   5.6904021901297085E-02
(PID.TID 0000.0001) %MON trcstat_ptracer10_del2       =   1.4707185105717179E-04
(PID.TID 0000.0001) %MON trcstat_ptracer11_max        =   2.8327734124397738E-04
(PID.TID 0000.0001) %MON trcstat_ptracer11_min        =   8.3393457011581350E-11
(PID.TID 0000.0001) %MON trcstat_ptracer11_mean       =   5.8395265113626465E-05
(PID.TID 0000.0001) %MON trcstat_ptracer11_sd         =   5.6904021955938799E-05
(PID.TID 0000.0001) %MON trcstat_ptracer11_del2       =   1.4707185147010916E-07
(PID.TID 0000.0001) %MON trcstat_ptracer12_max        =   1.2088107956725425E+02
(PID.TID 0000.0001) %MON trcstat_ptracer12_min        =   4.0327115303685539E-07
(PID.TID 0000.0001) %MON trcstat_ptracer12_mean       =   2.4532582277728476E+00
(PID.TID 0000.0001) %MON trcstat_ptracer12_sd         =   5.8853067462523772E+00
(PID.TID 0000.0001) %MON trcstat_ptracer12_del2       =   3.5677135379187902E-02
(PID.TID 0000.0001) %MON trcstat_ptracer13_max        =   1.6117477275633899E+01
(PID.TID 0000.0001) %MON trcstat_ptracer13_min        =   5.3769487071580719E-08
(PID.TID 0000.0001) %MON trcstat_ptracer13_mean       =   3.2710109703637968E-01
(PID.TID 0000.0001) %MON trcstat_ptracer13_sd         =   7.8470756616698367E-01
(PID.TID 0000.0001) %MON trcstat_ptracer13_del2       =   4.7569513838917202E-03
(PID.TID 0000.0001) %MON trcstat_ptracer14_max        =   1.0073423297271187E+00
(PID.TID 0000.0001) %MON trcstat_ptracer14_min        =   3.3605929419737949E-09
(PID.TID 0000.0001) %MON trcstat_ptracer14_mean       =   2.0443818564773730E-02
(PID.TID 0000.0001) %MON trcstat_ptracer14_sd         =   4.9044222885436480E-02
(PID.TID 0000.0001) %MON trcstat_ptracer14_del2       =   2.9730946149323251E-04
(PID.TID 0000.0001) %MON trcstat_ptracer15_max        =   3.0560054542130956E+02
(PID.TID 0000.0001) %MON trcstat_ptracer15_min        =   9.1521257106761775E-08
(PID.TID 0000.0001) %MON trcstat_ptracer15_mean       =   2.2925730551995462E+00
(PID.TID 0000.0001) %MON trcstat_ptracer15_sd         =   1.2520156838367631E+01
(PID.TID 0000.0001) %MON trcstat_ptracer15_del2       =   5.3786917924491265E-02
(PID.TID 0000.0001) %MON trcstat_ptracer16_max        =   1.0073423297271189E-03
(PID.TID 0000.0001) %MON trcstat_ptracer16_min        =   3.3605929419737930E-12
(PID.TID 0000.0001) %MON trcstat_ptracer16_mean       =   2.0443818569383914E-05
(PID.TID 0000.0001) %MON trcstat_ptracer16_sd         =   4.9044222882394825E-05
(PID.TID 0000.0001) %MON trcstat_ptracer16_del2       =   2.9730946172080255E-07
(PID.TID 0000.0001) %MON trcstat_ptracer17_max        =                      NAN
(PID.TID 0000.0001) %MON trcstat_ptracer17_min        =                      NAN
(PID.TID 0000.0001) %MON trcstat_ptracer17_mean       =                      NAN
(PID.TID 0000.0001) %MON trcstat_ptracer17_sd         =                      NAN
(PID.TID 0000.0001) %MON trcstat_ptracer17_del2       =                      NAN
(PID.TID 0000.0001) %MON trcstat_ptracer18_max        =   6.7189927556784495E-03
(PID.TID 0000.0001) %MON trcstat_ptracer18_min        =  -2.5282282671676252E-17
(PID.TID 0000.0001) %MON trcstat_ptracer18_mean       =   1.4991810632787654E-05
(PID.TID 0000.0001) %MON trcstat_ptracer18_sd         =   2.1629000168077260E-04
(PID.TID 0000.0001) %MON trcstat_ptracer18_del2       =   5.4396608025078078E-06
(PID.TID 0000.0001) %MON trcstat_ptracer19_max        =   6.3136695105389037E-02
[...]
(PID.TID 0000.0001) %MON trcstat_ptracer48_del2       =   5.0170405999509910E-06
(PID.TID 0000.0001) %MON trcstat_ptracer49_max        =   6.3157278538135998E-03
(PID.TID 0000.0001) %MON trcstat_ptracer49_min        =  -3.0894137372976291E-15
(PID.TID 0000.0001) %MON trcstat_ptracer49_mean       =   1.2822696278366947E-05
(PID.TID 0000.0001) %MON trcstat_ptracer49_sd         =   2.0013069134069378E-04
(PID.TID 0000.0001) %MON trcstat_ptracer49_del2       =   5.5669301975561036E-06
(PID.TID 0000.0001) %MON trcstat_ptracer50_max        =   6.7306200018748367E-03
(PID.TID 0000.0001) %MON trcstat_ptracer50_min        =  -5.1039529408168133E-16
(PID.TID 0000.0001) %MON trcstat_ptracer50_mean       =   1.5036676985000420E-05
(PID.TID 0000.0001) %MON trcstat_ptracer50_sd         =   2.1695206361807898E-04
(PID.TID 0000.0001) %MON trcstat_ptracer50_del2       =   5.4528435385134230E-06
(PID.TID 0000.0001) %MON trcstat_ptracer51_max        =   6.3157278537932186E-03
(PID.TID 0000.0001) %MON trcstat_ptracer51_min        =  -2.5596265560470384E-21
(PID.TID 0000.0001) %MON trcstat_ptracer51_mean       =   1.2822696316150554E-05
(PID.TID 0000.0001) %MON trcstat_ptracer51_sd         =   2.0013069133802179E-04
(PID.TID 0000.0001) %MON trcstat_ptracer51_del2       =   5.5669301975559265E-06
(PID.TID 0000.0001) %MON trcstat_ptracer52_max        =   3.5090299634496067E+00
(PID.TID 0000.0001) %MON trcstat_ptracer52_min        =   5.3533792178593913E-39
(PID.TID 0000.0001) %MON trcstat_ptracer52_mean       =   3.9787391992177422E-02
(PID.TID 0000.0001) %MON trcstat_ptracer52_sd         =   2.2088528298648488E-01
(PID.TID 0000.0001) %MON trcstat_ptracer52_del2       =   1.1295270802932759E-03
(PID.TID 0000.0001) %MON trcstat_ptracer53_max        =   6.3646411294859540E-02
(PID.TID 0000.0001) %MON trcstat_ptracer53_min        =   1.9529042022594893E-42
(PID.TID 0000.0001) %MON trcstat_ptracer53_mean       =   1.1541902295307279E-04
(PID.TID 0000.0001) %MON trcstat_ptracer53_sd         =   1.1502276823566646E-03
(PID.TID 0000.0001) %MON trcstat_ptracer53_del2       =   1.0690708120838792E-05
(PID.TID 0000.0001) %MON trcstat_ptracer54_max        =   1.3062677998143776E-02
(PID.TID 0000.0001) %MON trcstat_ptracer54_min        =   1.1920359159438263E-31
(PID.TID 0000.0001) %MON trcstat_ptracer54_mean       =   2.6579562821399794E-05
(PID.TID 0000.0001) %MON trcstat_ptracer54_sd         =   4.0187400602098052E-04
(PID.TID 0000.0001) %MON trcstat_ptracer54_del2       =   5.3345093477542765E-06
(PID.TID 0000.0001) %MON trcstat_ptracer55_max        =   9.3784580971700265E-03
(PID.TID 0000.0001) %MON trcstat_ptracer55_min        =   1.1755343298759889E-48
(PID.TID 0000.0001) %MON trcstat_ptracer55_mean       =   2.4673570013409031E-05
(PID.TID 0000.0001) %MON trcstat_ptracer55_sd         =   3.0878006607275852E-04
(PID.TID 0000.0001) %MON trcstat_ptracer55_del2       =   5.0008530240277959E-06
(PID.TID 0000.0001) %MON trcstat_ptracer56_max        =   9.2383094278900568E-03
(PID.TID 0000.0001) %MON trcstat_ptracer56_min        =  -7.4390681946991863E-30
(PID.TID 0000.0001) %MON trcstat_ptracer56_mean       =   2.4882442920211877E-05
(PID.TID 0000.0001) %MON trcstat_ptracer56_sd         =   3.5343672035385935E-04
(PID.TID 0000.0001) %MON trcstat_ptracer56_del2       =   4.7606166254647545E-06
(PID.TID 0000.0001) %MON trcstat_ptracer57_max        =   8.3449148102510817E-03
(PID.TID 0000.0001) %MON trcstat_ptracer57_min        =   7.9749369428198241E-28
(PID.TID 0000.0001) %MON trcstat_ptracer57_mean       =   1.8398861469885928E-05
(PID.TID 0000.0001) %MON trcstat_ptracer57_sd         =   2.8864827364394319E-04
(PID.TID 0000.0001) %MON trcstat_ptracer57_del2       =   4.9626953338174773E-06
(PID.TID 0000.0001) %MON trcstat_ptracer58_max        =   8.3803109225173283E-03
(PID.TID 0000.0001) %MON trcstat_ptracer58_min        =   1.1913559174519706E-48
(PID.TID 0000.0001) %MON trcstat_ptracer58_mean       =   2.0706528866505322E-05
(PID.TID 0000.0001) %MON trcstat_ptracer58_sd         =   2.6731847507774413E-04
(PID.TID 0000.0001) %MON trcstat_ptracer58_del2       =   5.2635544767080555E-06
(PID.TID 0000.0001) %MON trcstat_ptracer59_max        =   8.1286492186681825E-03
(PID.TID 0000.0001) %MON trcstat_ptracer59_min        =   1.1494762918694737E-48
(PID.TID 0000.0001) %MON trcstat_ptracer59_mean       =   2.9196375199440069E-05
(PID.TID 0000.0001) %MON trcstat_ptracer59_sd         =   3.5641522572267233E-04
(PID.TID 0000.0001) %MON trcstat_ptracer59_del2       =   4.6383612762482409E-06
(PID.TID 0000.0001) %MON trcstat_ptracer60_max        =   5.5349539619305027E-02
(PID.TID 0000.0001) %MON trcstat_ptracer60_min        =  -2.1475437762903784E-22
(PID.TID 0000.0001) %MON trcstat_ptracer60_mean       =   2.1849639854598074E-04
(PID.TID 0000.0001) %MON trcstat_ptracer60_sd         =   2.0465571671658099E-03
(PID.TID 0000.0001) %MON trcstat_ptracer60_del2       =   2.7192683413584966E-05
(PID.TID 0000.0001) %MON trcstat_ptracer61_max        =   6.5134586856329607E-03
(PID.TID 0000.0001) %MON trcstat_ptracer61_min        =   4.9242162191508481E-16
(PID.TID 0000.0001) %MON trcstat_ptracer61_mean       =   1.3982391862480294E-05
(PID.TID 0000.0001) %MON trcstat_ptracer61_sd         =   2.1136960440586167E-04
(PID.TID 0000.0001) %MON trcstat_ptracer61_del2       =   5.4653762010046932E-06
(PID.TID 0000.0001) %MON trcstat_ptracer62_max        =   6.7379585329935855E-03
(PID.TID 0000.0001) %MON trcstat_ptracer62_min        =  -6.1481025941139721E-17
(PID.TID 0000.0001) %MON trcstat_ptracer62_mean       =   1.5061832828157795E-05
(PID.TID 0000.0001) %MON trcstat_ptracer62_sd         =   2.1720008742027807E-04
(PID.TID 0000.0001) %MON trcstat_ptracer62_del2       =   5.4478283296868992E-06
(PID.TID 0000.0001) %MON trcstat_ptracer63_max        =   6.3157278537625591E-03
(PID.TID 0000.0001) %MON trcstat_ptracer63_min        =  -3.1667083405096590E-15
(PID.TID 0000.0001) %MON trcstat_ptracer63_mean       =   1.2824109602170631E-05
(PID.TID 0000.0001) %MON trcstat_ptracer63_sd         =   2.0015265951935291E-04
(PID.TID 0000.0001) %MON trcstat_ptracer63_del2       =   5.5663625083207296E-06
(PID.TID 0000.0001) %MON trcstat_ptracer64_max        =   6.4233297515692558E-03
(PID.TID 0000.0001) %MON trcstat_ptracer64_min        =  -7.6685469220636587E-23
(PID.TID 0000.0001) %MON trcstat_ptracer64_mean       =   1.3053677411010502E-05
(PID.TID 0000.0001) %MON trcstat_ptracer64_sd         =   2.0386878919186627E-04
(PID.TID 0000.0001) %MON trcstat_ptracer64_del2       =   5.5364018464908143E-06
(PID.TID 0000.0001) %MON trcstat_ptracer65_max        =   6.7379585328651587E-03
(PID.TID 0000.0001) %MON trcstat_ptracer65_min        =  -7.0363779823151999E-17
(PID.TID 0000.0001) %MON trcstat_ptracer65_mean       =   1.5061830340141085E-05
(PID.TID 0000.0001) %MON trcstat_ptracer65_sd         =   2.1720008759001130E-04
(PID.TID 0000.0001) %MON trcstat_ptracer65_del2       =   5.4478283294683850E-06
(PID.TID 0000.0001) %MON trcstat_ptracer66_max        =   6.7306200018837775E-03
(PID.TID 0000.0001) %MON trcstat_ptracer66_min        =  -3.2070499543220033E-16
(PID.TID 0000.0001) %MON trcstat_ptracer66_mean       =   1.5036676986954558E-05
(PID.TID 0000.0001) %MON trcstat_ptracer66_sd         =   2.1695206361866119E-04
(PID.TID 0000.0001) %MON trcstat_ptracer66_del2       =   5.4528435385108980E-06
(PID.TID 0000.0001) %MON trcstat_ptracer67_max        =   1.3831072444808013E-02
(PID.TID 0000.0001) %MON trcstat_ptracer67_min        =   9.3924897159742248E-29
(PID.TID 0000.0001) %MON trcstat_ptracer67_mean       =   3.0216052668897648E-05
(PID.TID 0000.0001) %MON trcstat_ptracer67_sd         =   4.2326411687866562E-04
(PID.TID 0000.0001) %MON trcstat_ptracer67_del2       =   5.5314140989004039E-06
(PID.TID 0000.0001) %MON trcstat_ptracer68_max        =   6.7573578130547826E-03
(PID.TID 0000.0001) %MON trcstat_ptracer68_min        =   1.1981314866955640E-48
(PID.TID 0000.0001) %MON trcstat_ptracer68_mean       =   1.5079952986529736E-05
(PID.TID 0000.0001) %MON trcstat_ptracer68_sd         =   2.1742533372524534E-04
(PID.TID 0000.0001) %MON trcstat_ptracer68_del2       =   5.4476396247746352E-06
(PID.TID 0000.0001) %MON trcstat_ptracer69_max        =   2.3244520856458459E+00
(PID.TID 0000.0001) %MON trcstat_ptracer69_min        =  -4.6289272300818610E-17
(PID.TID 0000.0001) %MON trcstat_ptracer69_mean       =   7.5290400946635597E-02
(PID.TID 0000.0001) %MON trcstat_ptracer69_sd         =   2.0235714559841758E-01
(PID.TID 0000.0001) %MON trcstat_ptracer69_del2       =   1.2136626538920860E-03
(PID.TID 0000.0001) %MON trcstat_ptracer70_max        =   6.5134581589575335E-03
(PID.TID 0000.0001) %MON trcstat_ptracer70_min        =  -1.6034012013721475E-16
(PID.TID 0000.0001) %MON trcstat_ptracer70_mean       =   1.3981523537135477E-05
(PID.TID 0000.0001) %MON trcstat_ptracer70_sd         =   2.1136961966300259E-04
(PID.TID 0000.0001) %MON trcstat_ptracer70_del2       =   5.4653764351880078E-06
(PID.TID 0000.0001) %MON trcstat_ptracer71_max        =   6.5147453137086933E-03
(PID.TID 0000.0001) %MON trcstat_ptracer71_min        =   5.9781308356041592E-35
(PID.TID 0000.0001) %MON trcstat_ptracer71_mean       =   1.6669165605128463E-05
(PID.TID 0000.0001) %MON trcstat_ptracer71_sd         =   2.1911732140298976E-04
(PID.TID 0000.0001) %MON trcstat_ptracer71_del2       =   5.3634908545890136E-06
(PID.TID 0000.0001) %MON trcstat_ptracer72_max        =   6.3088532102995700E-03
(PID.TID 0000.0001) %MON trcstat_ptracer72_min        =  -2.9402794343808572E-17
(PID.TID 0000.0001) %MON trcstat_ptracer72_mean       =   1.2803920244608842E-05
(PID.TID 0000.0001) %MON trcstat_ptracer72_sd         =   1.9991792918246879E-04
(PID.TID 0000.0001) %MON trcstat_ptracer72_del2       =   5.5717788468251764E-06
(PID.TID 0000.0001) %MON trcstat_ptracer73_max        =   6.3032696886710961E-03
(PID.TID 0000.0001) %MON trcstat_ptracer73_min        =   8.1419290473600444E-27
(PID.TID 0000.0001) %MON trcstat_ptracer73_mean       =   1.2787946427686551E-05
(PID.TID 0000.0001) %MON trcstat_ptracer73_sd         =   1.9971662459766223E-04
(PID.TID 0000.0001) %MON trcstat_ptracer73_del2       =   5.5734246738375503E-06
(PID.TID 0000.0001) %MON trcstat_ptracer74_max        =   6.3157277741535322E-03
(PID.TID 0000.0001) %MON trcstat_ptracer74_min        =  -1.6399312758789198E-15
(PID.TID 0000.0001) %MON trcstat_ptracer74_mean       =   1.2836252292355000E-05
(PID.TID 0000.0001) %MON trcstat_ptracer74_sd         =   2.0038179366704413E-04
(PID.TID 0000.0001) %MON trcstat_ptracer74_del2       =   5.5644047082508447E-06
(PID.TID 0000.0001) %MON trcstat_ptracer75_max        =   1.1427395388471876E+01
(PID.TID 0000.0001) %MON trcstat_ptracer75_min        =   3.8980436243187964E-13
(PID.TID 0000.0001) %MON trcstat_ptracer75_mean       =   8.1009663769461737E-01
(PID.TID 0000.0001) %MON trcstat_ptracer75_sd         =   1.2400660810388335E+00
(PID.TID 0000.0001) %MON trcstat_ptracer75_del2       =   7.4637389011128511E-03
(PID.TID 0000.0001) %MON trcstat_ptracer76_max        =   6.8399628465528441E-03
(PID.TID 0000.0001) %MON trcstat_ptracer76_min        =  -1.7769309069101567E-21
(PID.TID 0000.0001) %MON trcstat_ptracer76_mean       =   1.5212283833476002E-05
(PID.TID 0000.0001) %MON trcstat_ptracer76_sd         =   2.2006451572020237E-04
(PID.TID 0000.0001) %MON trcstat_ptracer76_del2       =   5.4237741602078296E-06
(PID.TID 0000.0001) %MON trcstat_ptracer77_max        =   6.7539528040387112E-03
(PID.TID 0000.0001) %MON trcstat_ptracer77_min        =   1.0472863983558183E-48
(PID.TID 0000.0001) %MON trcstat_ptracer77_mean       =   1.7005948509690093E-05
(PID.TID 0000.0001) %MON trcstat_ptracer77_sd         =   2.4224894374087920E-04
(PID.TID 0000.0001) %MON trcstat_ptracer77_del2       =   5.1698660014844453E-06
(PID.TID 0000.0001) %MON trcstat_ptracer78_max        =   1.7672065555834691E-02
(PID.TID 0000.0001) %MON trcstat_ptracer78_min        =   3.8617873853723681E-49
(PID.TID 0000.0001) %MON trcstat_ptracer78_mean       =   6.2584903371817736E-05
(PID.TID 0000.0001) %MON trcstat_ptracer78_sd         =   6.2943656568806446E-04
(PID.TID 0000.0001) %MON trcstat_ptracer78_del2       =   5.4898654279315378E-06
(PID.TID 0000.0001) %MON trcstat_ptracer79_max        =   2.5135428679542997E+00
(PID.TID 0000.0001) %MON trcstat_ptracer79_min        =   2.6042724198503773E-33
(PID.TID 0000.0001) %MON trcstat_ptracer79_mean       =   1.5892271773495850E-02
(PID.TID 0000.0001) %MON trcstat_ptracer79_sd         =   9.9368809976000269E-02
(PID.TID 0000.0001) %MON trcstat_ptracer79_del2       =   5.7895034938733434E-04
(PID.TID 0000.0001) %MON trcstat_ptracer80_max        =   2.3372954583707951E-02
(PID.TID 0000.0001) %MON trcstat_ptracer80_min        =  -4.3001544465707051E-26
(PID.TID 0000.0001) %MON trcstat_ptracer80_mean       =   6.5187132905112640E-05
(PID.TID 0000.0001) %MON trcstat_ptracer80_sd         =   7.9940484958291626E-04
(PID.TID 0000.0001) %MON trcstat_ptracer80_del2       =   8.8059725882112273E-06
(PID.TID 0000.0001) %MON trcstat_ptracer81_max        =   6.9254209936131274E-03
(PID.TID 0000.0001) %MON trcstat_ptracer81_min        =   1.0114870433555072E-48
(PID.TID 0000.0001) %MON trcstat_ptracer81_mean       =   1.5330902383948866E-05
(PID.TID 0000.0001) %MON trcstat_ptracer81_sd         =   2.2106188646622686E-04
(PID.TID 0000.0001) %MON trcstat_ptracer81_del2       =   5.4181172481508665E-06
(PID.TID 0000.0001) %MON trcstat_ptracer82_max        =   6.3157278538180529E-03
(PID.TID 0000.0001) %MON trcstat_ptracer82_min        =  -3.0886320682737967E-15
(PID.TID 0000.0001) %MON trcstat_ptracer82_mean       =   1.2822696278388428E-05
(PID.TID 0000.0001) %MON trcstat_ptracer82_sd         =   2.0013069134095060E-04
(PID.TID 0000.0001) %MON trcstat_ptracer82_del2       =   5.5669301975534405E-06
(PID.TID 0000.0001) %MON trcstat_ptracer83_max        =   6.7481064863033841E-03
(PID.TID 0000.0001) %MON trcstat_ptracer83_min        =  -2.2534293845650168E-16
(PID.TID 0000.0001) %MON trcstat_ptracer83_mean       =   1.5145621176564042E-05
(PID.TID 0000.0001) %MON trcstat_ptracer83_sd         =   2.1852560292670334E-04
(PID.TID 0000.0001) %MON trcstat_ptracer83_del2       =   5.4319598476761648E-06
(PID.TID 0000.0001) %MON trcstat_ptracer84_max        =   6.8469527924377932E-03
(PID.TID 0000.0001) %MON trcstat_ptracer84_min        =  -1.3626434516072474E-16
(PID.TID 0000.0001) %MON trcstat_ptracer84_mean       =   1.5305944996900881E-05
(PID.TID 0000.0001) %MON trcstat_ptracer84_sd         =   2.2097271334756025E-04
(PID.TID 0000.0001) %MON trcstat_ptracer84_del2       =   5.4150411286936420E-06
(PID.TID 0000.0001) %MON trcstat_ptracer85_max        =   7.5071735437522094E+00
(PID.TID 0000.0001) %MON trcstat_ptracer85_min        =   5.5515352489039136E-28
(PID.TID 0000.0001) %MON trcstat_ptracer85_mean       =   4.3987284983652170E-01
(PID.TID 0000.0001) %MON trcstat_ptracer85_sd         =   9.5337134964563286E-01
(PID.TID 0000.0001) %MON trcstat_ptracer85_del2       =   3.5963006936505283E-03
(PID.TID 0000.0001) %MON trcstat_ptracer86_max        =   6.6878075886942058E-03
(PID.TID 0000.0001) %MON trcstat_ptracer86_min        =  -1.6307328206467865E-16
(PID.TID 0000.0001) %MON trcstat_ptracer86_mean       =   1.4266379525782050E-05
(PID.TID 0000.0001) %MON trcstat_ptracer86_sd         =   2.1605059477497276E-04
(PID.TID 0000.0001) %MON trcstat_ptracer86_del2       =   5.4249503125377252E-06
(PID.TID 0000.0001) %MON trcstat_ptracer87_max        =   2.9311069750351009E-02
(PID.TID 0000.0001) %MON trcstat_ptracer87_min        =   2.8421972429092323E-22
(PID.TID 0000.0001) %MON trcstat_ptracer87_mean       =   6.7291576307101694E-05
(PID.TID 0000.0001) %MON trcstat_ptracer87_sd         =   8.6733141469103124E-04
(PID.TID 0000.0001) %MON trcstat_ptracer87_del2       =   1.1971553413879167E-05
(PID.TID 0000.0001) %MON trcstat_ptracer88_max        =   3.8719196332826715E-02
(PID.TID 0000.0001) %MON trcstat_ptracer88_min        =   1.0759003949517545E-40
(PID.TID 0000.0001) %MON trcstat_ptracer88_mean       =   1.9696761951574948E-04
(PID.TID 0000.0001) %MON trcstat_ptracer88_sd         =   1.6264109964123931E-03
(PID.TID 0000.0001) %MON trcstat_ptracer88_del2       =   1.2077455010667768E-05
(PID.TID 0000.0001) %MON trcstat_ptracer89_max        =   8.8107557140512383E-01
(PID.TID 0000.0001) %MON trcstat_ptracer89_min        =   4.0869379136761442E-31
(PID.TID 0000.0001) %MON trcstat_ptracer89_mean       =   1.2869724789182508E-02
(PID.TID 0000.0001) %MON trcstat_ptracer89_sd         =   5.0957725107191411E-02
(PID.TID 0000.0001) %MON trcstat_ptracer89_del2       =   4.0560171168972593E-04
(PID.TID 0000.0001) %MON trcstat_ptracer90_max        =   6.3157286079301329E-03
(PID.TID 0000.0001) %MON trcstat_ptracer90_min        =   1.4895211080222901E-26
(PID.TID 0000.0001) %MON trcstat_ptracer90_mean       =   1.2822837652494685E-05
(PID.TID 0000.0001) %MON trcstat_ptracer90_sd         =   2.0013073202951849E-04
(PID.TID 0000.0001) %MON trcstat_ptracer90_del2       =   5.5669299474027069E-06
(PID.TID 0000.0001) %MON trcstat_ptracer91_max        =   6.7246601735553285E-03
(PID.TID 0000.0001) %MON trcstat_ptracer91_min        =  -5.0819751305603917E-16
(PID.TID 0000.0001) %MON trcstat_ptracer91_mean       =   1.5016161411348744E-05
(PID.TID 0000.0001) %MON trcstat_ptracer91_sd         =   2.1672626235203621E-04
(PID.TID 0000.0001) %MON trcstat_ptracer91_del2       =   5.4545025439849380E-06
(PID.TID 0000.0001) %MON trcstat_ptracer92_max        =   6.3157278537248184E-03
(PID.TID 0000.0001) %MON trcstat_ptracer92_min        =  -3.2230761919257308E-15
(PID.TID 0000.0001) %MON trcstat_ptracer92_mean       =   1.2822696278109838E-05
(PID.TID 0000.0001) %MON trcstat_ptracer92_sd         =   2.0013069133699931E-04
(PID.TID 0000.0001) %MON trcstat_ptracer92_del2       =   5.5669301975917374E-06
(PID.TID 0000.0001) %MON trcstat_ptracer93_max        =   9.6904378857971901E-02
(PID.TID 0000.0001) %MON trcstat_ptracer93_min        =   1.2000000000826991E-48
(PID.TID 0000.0001) %MON trcstat_ptracer93_mean       =   1.8853535519184022E-04
(PID.TID 0000.0001) %MON trcstat_ptracer93_sd         =   1.8935884516942684E-03
(PID.TID 0000.0001) %MON trcstat_ptracer93_del2       =   1.5861106780786507E-05
(PID.TID 0000.0001) %MON trcstat_ptracer94_max        =   8.8175321665086501E-03
(PID.TID 0000.0001) %MON trcstat_ptracer94_min        =  -1.2171219585632331E-21
(PID.TID 0000.0001) %MON trcstat_ptracer94_mean       =   2.4718079007299204E-05
(PID.TID 0000.0001) %MON trcstat_ptracer94_sd         =   3.4484077069680906E-04
(PID.TID 0000.0001) %MON trcstat_ptracer94_del2       =   4.7341594624104519E-06
(PID.TID 0000.0001) %MON trcstat_ptracer95_max        =   6.5006069688062738E-03
(PID.TID 0000.0001) %MON trcstat_ptracer95_min        =  -1.1857704007007848E-19
(PID.TID 0000.0001) %MON trcstat_ptracer95_mean       =   1.3942137098548681E-05
(PID.TID 0000.0001) %MON trcstat_ptracer95_sd         =   2.1092880256518988E-04
(PID.TID 0000.0001) %MON trcstat_ptracer95_del2       =   5.4720805871059677E-06
(PID.TID 0000.0001) %MON trcstat_ptracer96_max        =   8.3778260652292247E-01
(PID.TID 0000.0001) %MON trcstat_ptracer96_min        =   8.2681386360894748E-31
(PID.TID 0000.0001) %MON trcstat_ptracer96_mean       =   5.6501315744510595E-02
(PID.TID 0000.0001) %MON trcstat_ptracer96_sd         =   1.3278397083297142E-01
(PID.TID 0000.0001) %MON trcstat_ptracer96_del2       =   4.3207599990401904E-04
(PID.TID 0000.0001) %MON trcstat_ptracer97_max        =   1.0111071647312750E+01
(PID.TID 0000.0001) %MON trcstat_ptracer97_min        =   1.0955752561589820E-20
(PID.TID 0000.0001) %MON trcstat_ptracer97_mean       =   2.0415100305823519E-01
(PID.TID 0000.0001) %MON trcstat_ptracer97_sd         =   8.9925536423136632E-01
(PID.TID 0000.0001) %MON trcstat_ptracer97_del2       =   3.8642076862019045E-03
