(PID.TID 0000.0001) 
(PID.TID 0000.0001) // ======================================================
(PID.TID 0000.0001) //                      MITgcm UV
(PID.TID 0000.0001) //                      =========
(PID.TID 0000.0001) // ======================================================
(PID.TID 0000.0001) // execution environment starting up...
(PID.TID 0000.0001) 
(PID.TID 0000.0001) // Build user:        jahn
(PID.TID 0000.0001) // Build host:        node205
(PID.TID 0000.0001) // Build date:        Fri Aug  1 11:33:30 EDT 2014
(PID.TID 0000.0001) 
(PID.TID 0000.0001) // =======================================================
(PID.TID 0000.0001) // Execution Environment parameter file "eedata"
(PID.TID 0000.0001) // =======================================================
(PID.TID 0000.0001) ># Example "eedata" file
(PID.TID 0000.0001) ># Lines beginning "#" are comments
(PID.TID 0000.0001) ># nTx - No. threads per process in X
(PID.TID 0000.0001) ># nTy - No. threads per process in Y
(PID.TID 0000.0001) > &EEPARMS
(PID.TID 0000.0001) > nTx=1,nTy=1
(PID.TID 0000.0001) > /
(PID.TID 0000.0001) ># Note: Some systems use & as the
(PID.TID 0000.0001) ># namelist terminator. Other systems
(PID.TID 0000.0001) ># use a / character (as shown here).
(PID.TID 0000.0001) 
(PID.TID 0000.0001) // =======================================================
(PID.TID 0000.0001) // Computational Grid Specification ( see files "SIZE.h" )
(PID.TID 0000.0001) //                                  ( and "eedata"       )
(PID.TID 0000.0001) // =======================================================
(PID.TID 0000.0001)      nPx =    8 ; /* No. processes in X */
(PID.TID 0000.0001)      nPy =    4 ; /* No. processes in Y */
(PID.TID 0000.0001)      nSx =    1 ; /* No. tiles in X per process */
(PID.TID 0000.0001)      nSy =    1 ; /* No. tiles in Y per process */
(PID.TID 0000.0001)      sNx =   45 ; /* Tile size in X */
(PID.TID 0000.0001)      sNy =   40 ; /* Tile size in Y */
(PID.TID 0000.0001)      OLx =    4 ; /* Tile overlap distance in X */
(PID.TID 0000.0001)      OLy =    4 ; /* Tile overlap distance in Y */
(PID.TID 0000.0001)      nTx =    1 ; /* No. threads in X per process */
(PID.TID 0000.0001)      nTy =    1 ; /* No. threads in Y per process */
(PID.TID 0000.0001)       Nr =   23 ; /* No. levels in the vertical   */
(PID.TID 0000.0001)       Nx =  360 ; /* Total domain size in X ( = nPx*nSx*sNx ) */
(PID.TID 0000.0001)       Ny =  160 ; /* Total domain size in Y ( = nPy*nSy*sNy ) */
(PID.TID 0000.0001)   nTiles =    1 ; /* Total no. tiles per process ( = nSx*nSy ) */
(PID.TID 0000.0001)   nProcs =   32 ; /* Total no. processes ( = nPx*nPy ) */
(PID.TID 0000.0001) nThreads =    1 ; /* Total no. threads per process ( = nTx*nTy ) */
(PID.TID 0000.0001) usingMPI =    T ; /* Flag used to control whether MPI is in use */
(PID.TID 0000.0001)                   /*  note: To execute a program with MPI calls */
(PID.TID 0000.0001)                   /*  it must be launched appropriately e.g     */
(PID.TID 0000.0001)                   /*  "mpirun -np 64 ......"                    */
(PID.TID 0000.0001) useCoupler=    F ;/* Flag used to control communications with   */
(PID.TID 0000.0001)                   /*  other model components, through a coupler */
(PID.TID 0000.0001) debugMode =    F ; /* print debug msg. (sequence of S/R calls)  */
(PID.TID 0000.0001) printMapIncludesZeros=    F ; /* print zeros in Std.Output maps */
(PID.TID 0000.0001) maxLengthPrt1D=   65 /* maxLength of 1D array printed to StdOut */
(PID.TID 0000.0001) 
(PID.TID 0000.0001) ======= Starting MPI parallel Run =========
(PID.TID 0000.0001)  My Processor Name (len:  7 ) = node205
(PID.TID 0000.0001)  Located at (  0,  0) on processor grid (0:  7,0:  3)
(PID.TID 0000.0001)  Origin at  (     1,     1) on global grid (1:   360,1:   160)
(PID.TID 0000.0001)  North neighbor = processor 0001
(PID.TID 0000.0001)  South neighbor = processor 0003
(PID.TID 0000.0001)   East neighbor = processor 0004
(PID.TID 0000.0001)   West neighbor = processor 0028
(PID.TID 0000.0001) // ======================================================
(PID.TID 0000.0001) // Mapping of tiles to threads
(PID.TID 0000.0001) // ======================================================
(PID.TID 0000.0001) // -o- Thread   1, tiles (   1:   1,   1:   1)
(PID.TID 0000.0001) 
(PID.TID 0000.0001) // ======================================================
(PID.TID 0000.0001) // Tile <-> Tile connectvity table
(PID.TID 0000.0001) // ======================================================
(PID.TID 0000.0001) // Tile number: 000001 (process no. = 000000)
(PID.TID 0000.0001) //        WEST: Tile = 000008, Process = 000028, Comm = messages
(PID.TID 0000.0001) //                bi = 000001, bj = 000001
(PID.TID 0000.0001) //        EAST: Tile = 000002, Process = 000004, Comm = messages
(PID.TID 0000.0001) //                bi = 000001, bj = 000001
(PID.TID 0000.0001) //       SOUTH: Tile = 000025, Process = 000003, Comm = messages
(PID.TID 0000.0001) //                bi = 000001, bj = 000001
(PID.TID 0000.0001) //       NORTH: Tile = 000009, Process = 000001, Comm = messages
(PID.TID 0000.0001) //                bi = 000001, bj = 000001
(PID.TID 0000.0001) 
(PID.TID 0000.0001)  INI_PARMS: opening model parameter file "data"
(PID.TID 0000.0001)  OPEN_COPY_DATA_FILE: opening file data
(PID.TID 0000.0001) // =======================================================
(PID.TID 0000.0001) // Removing comments from "data"
(PID.TID 0000.0001) // =======================================================
(PID.TID 0000.0001)    1 &PARM01
(PID.TID 0000.0001)    2 tRef= 24.0 , 23.0 , 22.0 , 21.0 , 20.0 ,
(PID.TID 0000.0001)    3       19.0 , 18.0 , 17.0 , 16.0 , 15.0 ,
(PID.TID 0000.0001)    4       14.0 , 13.0 , 12.0 , 11.0 , 10.0 ,
(PID.TID 0000.0001)    5        9.0 ,  8.0 ,  7.0 ,  6.0,   5.0 ,
(PID.TID 0000.0001)    6        4.0 ,  3.0 ,  2.0 ,
(PID.TID 0000.0001)    7 sRef= 34.65, 34.75, 34.82, 34.87, 34.90,
(PID.TID 0000.0001)    8       34.90, 34.86, 34.78, 34.69, 34.60,
(PID.TID 0000.0001)    9       34.58, 34.62, 34.68, 34.72, 34.73,
(PID.TID 0000.0001)   10       34.74, 34.73, 34.73, 34.72, 34.72,
(PID.TID 0000.0001)   11       34.71, 34.70, 34.69,
(PID.TID 0000.0001)   12 no_slip_sides=.false.,
(PID.TID 0000.0001)   13 no_slip_bottom=.TRUE.,
(PID.TID 0000.0001)   14 viscAz=1.E-3,
(PID.TID 0000.0001)   15 viscAh=1.E4,
(PID.TID 0000.0001)   16 diffKhT=1.E2,
(PID.TID 0000.0001)   17 diffKzT=1.E-5,
(PID.TID 0000.0001)   18 diffKhS=1.E2,
(PID.TID 0000.0001)   19 diffKzS=1.E-5,
(PID.TID 0000.0001)   20 beta=1.E-11,
(PID.TID 0000.0001)   21 tAlpha=2.E-4,
(PID.TID 0000.0001)   22 sBeta =7.4E-4,
(PID.TID 0000.0001)   23 gravity=9.81,
(PID.TID 0000.0001)   24 gBaro=9.81,
(PID.TID 0000.0001)   25 rigidLid=.FALSE.,
(PID.TID 0000.0001)   26 implicitFreeSurface=.true.,
(PID.TID 0000.0001)   27 eosType='POLY3',
(PID.TID 0000.0001)   28 saltStepping=.TRUE.,
(PID.TID 0000.0001)   29 tempStepping=.TRUE.,
(PID.TID 0000.0001)   30 momStepping=.TRUE.,
(PID.TID 0000.0001)   31 implicitDiffusion=.true.,
(PID.TID 0000.0001)   32 implicitViscosity=.true.,
(PID.TID 0000.0001)   33 allowFreezing=.false.,
(PID.TID 0000.0001)   34 useSingleCpuIO=.TRUE.,
(PID.TID 0000.0001)   35 useCDscheme=.FALSE.,
(PID.TID 0000.0001)   36 tempAdvScheme = 3,
(PID.TID 0000.0001)   37 saltAdvScheme = 3,
(PID.TID 0000.0001)   38 readBinaryPrec= 64,
(PID.TID 0000.0001)   39 writeBinaryPrec= 64,
(PID.TID 0000.0001)   40 /
(PID.TID 0000.0001)   41
(PID.TID 0000.0001)   42 &PARM02
(PID.TID 0000.0001)   43 cg2dMaxIters=300,
(PID.TID 0000.0001)   44 cg2dTargetResidual=1.E-7,
(PID.TID 0000.0001)   45 /
(PID.TID 0000.0001)   46
(PID.TID 0000.0001)   47 &PARM03
(PID.TID 0000.0001)   48  nIter0=0,
(PID.TID 0000.0001)   49  nTimeSteps=4,
(PID.TID 0000.0001)   50  deltaTmom=10800.,
(PID.TID 0000.0001)   51  deltaTtracer=10800.,
(PID.TID 0000.0001)   52  deltaTClock =10800.,
(PID.TID 0000.0001)   53  abEps=0.1,
(PID.TID 0000.0001)   54  pChkptFreq  = 31104000.,
(PID.TID 0000.0001)   55  chkptFreq   = 31104000.,
(PID.TID 0000.0001)   56  dumpFreq    = 31104000.,
(PID.TID 0000.0001)   57  taveFreq    = 31104000.,
(PID.TID 0000.0001)   58  monitorFreq = 2592000.,
(PID.TID 0000.0001)   59  monitorFreq = 1.,
(PID.TID 0000.0001)   60  tauThetaClimRelax=0.,
(PID.TID 0000.0001)   61  tauSaltClimRelax=0.,
(PID.TID 0000.0001)   62  periodicExternalForcing=.TRUE.,
(PID.TID 0000.0001)   63  externForcingPeriod=2592000.,
(PID.TID 0000.0001)   64  externForcingCycle=31104000.,
(PID.TID 0000.0001)   65 /
(PID.TID 0000.0001)   66
(PID.TID 0000.0001)   67 &PARM04
(PID.TID 0000.0001)   68 usingCartesianGrid=.FALSE.,
(PID.TID 0000.0001)   69 usingSphericalPolarGrid=.TRUE.,
(PID.TID 0000.0001)   70 delX=360*1.E0,
(PID.TID 0000.0001)   71 delY=160*1.E0,
(PID.TID 0000.0001)   72 delZ=10.,10.,15.,20.,20.,25.,35.,50.,75.,
(PID.TID 0000.0001)   73 100.,150.,200.,275.,350.,415.,450.,500.,
(PID.TID 0000.0001)   74 500.,500.,500.,500.,500.,500.,
(PID.TID 0000.0001)   75 xgOrigin=0,
(PID.TID 0000.0001)   76 ygOrigin=-80.,
(PID.TID 0000.0001)   77 /
(PID.TID 0000.0001)   78
(PID.TID 0000.0001)   79 &PARM05
(PID.TID 0000.0001)   80 bathyFile=       '../../../input/eccov3_R8/bathy_fl.bin',
(PID.TID 0000.0001)   81 zonalWindFile=   '',
(PID.TID 0000.0001)   82 meridWindFile=   '',
(PID.TID 0000.0001)   83 thetaClimFile=   '',
(PID.TID 0000.0001)   84 saltClimFile=    '',
(PID.TID 0000.0001)   85 surfQFile=       '',
(PID.TID 0000.0001)   86 EmPmRFile=       '',
(PID.TID 0000.0001)   87 /
(PID.TID 0000.0001) // =======================================================
(PID.TID 0000.0001) // Parameter file "data"
(PID.TID 0000.0001) // =======================================================
(PID.TID 0000.0001) >#
(PID.TID 0000.0001) ># ******************************
(PID.TID 0000.0001) ># Model parameters
(PID.TID 0000.0001) ># Continuous equation parameters
(PID.TID 0000.0001) ># ******************************
(PID.TID 0000.0001) >&PARM01
(PID.TID 0000.0001) >tRef= 24.0 , 23.0 , 22.0 , 21.0 , 20.0 ,
(PID.TID 0000.0001) >      19.0 , 18.0 , 17.0 , 16.0 , 15.0 ,
(PID.TID 0000.0001) >      14.0 , 13.0 , 12.0 , 11.0 , 10.0 ,
(PID.TID 0000.0001) >       9.0 ,  8.0 ,  7.0 ,  6.0,   5.0 ,
(PID.TID 0000.0001) >       4.0 ,  3.0 ,  2.0 ,
(PID.TID 0000.0001) >sRef= 34.65, 34.75, 34.82, 34.87, 34.90,
(PID.TID 0000.0001) >      34.90, 34.86, 34.78, 34.69, 34.60,
(PID.TID 0000.0001) >      34.58, 34.62, 34.68, 34.72, 34.73,
(PID.TID 0000.0001) >      34.74, 34.73, 34.73, 34.72, 34.72,
(PID.TID 0000.0001) >      34.71, 34.70, 34.69,
(PID.TID 0000.0001) >no_slip_sides=.false.,
(PID.TID 0000.0001) >no_slip_bottom=.TRUE.,
(PID.TID 0000.0001) >viscAz=1.E-3,
(PID.TID 0000.0001) >viscAh=1.E4,
(PID.TID 0000.0001) >diffKhT=1.E2,
(PID.TID 0000.0001) >diffKzT=1.E-5,
(PID.TID 0000.0001) >diffKhS=1.E2,
(PID.TID 0000.0001) >diffKzS=1.E-5,
(PID.TID 0000.0001) >beta=1.E-11,
(PID.TID 0000.0001) >tAlpha=2.E-4,
(PID.TID 0000.0001) >sBeta =7.4E-4,
(PID.TID 0000.0001) >gravity=9.81,
(PID.TID 0000.0001) >gBaro=9.81,
(PID.TID 0000.0001) >rigidLid=.FALSE.,
(PID.TID 0000.0001) >implicitFreeSurface=.true.,
(PID.TID 0000.0001) >eosType='POLY3',
(PID.TID 0000.0001) >saltStepping=.TRUE.,
(PID.TID 0000.0001) >tempStepping=.TRUE.,
(PID.TID 0000.0001) >momStepping=.TRUE.,
(PID.TID 0000.0001) >implicitDiffusion=.true.,
(PID.TID 0000.0001) >implicitViscosity=.true.,
(PID.TID 0000.0001) >allowFreezing=.false.,
(PID.TID 0000.0001) >useSingleCpuIO=.TRUE.,
(PID.TID 0000.0001) >useCDscheme=.FALSE.,
(PID.TID 0000.0001) >tempAdvScheme = 3,
(PID.TID 0000.0001) >saltAdvScheme = 3,
(PID.TID 0000.0001) >readBinaryPrec= 64,
(PID.TID 0000.0001) >writeBinaryPrec= 64,
(PID.TID 0000.0001) >/
(PID.TID 0000.0001) >
(PID.TID 0000.0001) ># **************************
(PID.TID 0000.0001) ># Elliptic solver parameters
(PID.TID 0000.0001) ># **************************
(PID.TID 0000.0001) >&PARM02
(PID.TID 0000.0001) >cg2dMaxIters=300,
(PID.TID 0000.0001) >cg2dTargetResidual=1.E-7,
(PID.TID 0000.0001) >/
(PID.TID 0000.0001) >
(PID.TID 0000.0001) ># ************************
(PID.TID 0000.0001) ># Time stepping parameters
(PID.TID 0000.0001) ># ************************
(PID.TID 0000.0001) >&PARM03
(PID.TID 0000.0001) > nIter0=0,
(PID.TID 0000.0001) > nTimeSteps=4,
(PID.TID 0000.0001) > deltaTmom=10800.,
(PID.TID 0000.0001) > deltaTtracer=10800.,
(PID.TID 0000.0001) > deltaTClock =10800.,
(PID.TID 0000.0001) > abEps=0.1,
(PID.TID 0000.0001) > pChkptFreq  = 31104000.,
(PID.TID 0000.0001) > chkptFreq   = 31104000.,
(PID.TID 0000.0001) >#pChkptFreq  = 2592000.,
(PID.TID 0000.0001) >#chkptFreq   = 2592000.,
(PID.TID 0000.0001) > dumpFreq    = 31104000.,
(PID.TID 0000.0001) > taveFreq    = 31104000.,
(PID.TID 0000.0001) >#taveFreq    = 86400.,
(PID.TID 0000.0001) >#dumpFreq    = 2592000.,
(PID.TID 0000.0001) >#taveFreq    = 2592000.,
(PID.TID 0000.0001) > monitorFreq = 2592000.,
(PID.TID 0000.0001) > monitorFreq = 1.,
(PID.TID 0000.0001) >#monitorFreq = 31104000.,
(PID.TID 0000.0001) > tauThetaClimRelax=0.,
(PID.TID 0000.0001) > tauSaltClimRelax=0.,
(PID.TID 0000.0001) > periodicExternalForcing=.TRUE.,
(PID.TID 0000.0001) > externForcingPeriod=2592000.,
(PID.TID 0000.0001) > externForcingCycle=31104000.,
(PID.TID 0000.0001) >/
(PID.TID 0000.0001) >
(PID.TID 0000.0001) ># *******************
(PID.TID 0000.0001) ># Gridding parameters
(PID.TID 0000.0001) ># *******************
(PID.TID 0000.0001) >&PARM04
(PID.TID 0000.0001) >usingCartesianGrid=.FALSE.,
(PID.TID 0000.0001) >usingSphericalPolarGrid=.TRUE.,
(PID.TID 0000.0001) >delX=360*1.E0,
(PID.TID 0000.0001) >delY=160*1.E0,
(PID.TID 0000.0001) >delZ=10.,10.,15.,20.,20.,25.,35.,50.,75.,
(PID.TID 0000.0001) >100.,150.,200.,275.,350.,415.,450.,500.,
(PID.TID 0000.0001) >500.,500.,500.,500.,500.,500.,
(PID.TID 0000.0001) >xgOrigin=0,
(PID.TID 0000.0001) >ygOrigin=-80.,
(PID.TID 0000.0001) >/
(PID.TID 0000.0001) >
(PID.TID 0000.0001) ># **********
(PID.TID 0000.0001) ># Data Files
(PID.TID 0000.0001) ># **********
(PID.TID 0000.0001) >&PARM05
(PID.TID 0000.0001) >bathyFile=       '../../../input/eccov3_R8/bathy_fl.bin',
(PID.TID 0000.0001) >#hydrogThetaFile= 'input/LEVITUS_1x1_ptmp_NEW_corK',
(PID.TID 0000.0001) >#hydrogSaltFile=  'input/LEVITUS_1x1_salt_NEW_corK',
(PID.TID 0000.0001) >zonalWindFile=   '',
(PID.TID 0000.0001) >meridWindFile=   '',
(PID.TID 0000.0001) >thetaClimFile=   '',
(PID.TID 0000.0001) >saltClimFile=    '',
(PID.TID 0000.0001) >surfQFile=       '',
(PID.TID 0000.0001) >EmPmRFile=       '',
(PID.TID 0000.0001) >/
(PID.TID 0000.0001) 
(PID.TID 0000.0001)  INI_PARMS ; starts to read PARM01
(PID.TID 0000.0001)  INI_PARMS ; read PARM01 : OK
(PID.TID 0000.0001)  INI_PARMS ; starts to read PARM02
(PID.TID 0000.0001)  INI_PARMS ; read PARM02 : OK
(PID.TID 0000.0001)  INI_PARMS ; starts to read PARM03
(PID.TID 0000.0001)  INI_PARMS ; read PARM03 : OK
(PID.TID 0000.0001)  INI_PARMS ; starts to read PARM04
(PID.TID 0000.0001)  INI_PARMS ; read PARM04 : OK
(PID.TID 0000.0001)  INI_PARMS ; starts to read PARM05
(PID.TID 0000.0001)  INI_PARMS ; read PARM05 : OK
(PID.TID 0000.0001)  INI_PARMS: finished reading file "data"
(PID.TID 0000.0001)  PACKAGES_BOOT: opening data.pkg
(PID.TID 0000.0001)  OPEN_COPY_DATA_FILE: opening file data.pkg
(PID.TID 0000.0001) // =======================================================
(PID.TID 0000.0001) // Removing comments from "data.pkg"
(PID.TID 0000.0001) // =======================================================
(PID.TID 0000.0001)    1  &PACKAGES
(PID.TID 0000.0001)    2  useGMRedi=.TRUE.
(PID.TID 0000.0001)    3  usePTRACERS=.TRUE.
(PID.TID 0000.0001)    4  useGCHEM=.TRUE.,
(PID.TID 0000.0001)    5  useKPP=.TRUE.,
(PID.TID 0000.0001)    6  useMNC=.TRUE.,
(PID.TID 0000.0001)    7  useEXF=.TRUE.,
(PID.TID 0000.0001)    8  useOFFLINE=.TRUE.,
(PID.TID 0000.0001)    9  useDIAGNOSTICS=.TRUE.,
(PID.TID 0000.0001)   10  /
(PID.TID 0000.0001) // =======================================================
(PID.TID 0000.0001) // Parameter file "data.pkg"
(PID.TID 0000.0001) // =======================================================
(PID.TID 0000.0001) ># Packages
(PID.TID 0000.0001) > &PACKAGES
(PID.TID 0000.0001) > useGMRedi=.TRUE.
(PID.TID 0000.0001) > usePTRACERS=.TRUE.
(PID.TID 0000.0001) > useGCHEM=.TRUE.,
(PID.TID 0000.0001) > useKPP=.TRUE.,
(PID.TID 0000.0001) > useMNC=.TRUE.,
(PID.TID 0000.0001) > useEXF=.TRUE.,
(PID.TID 0000.0001) > useOFFLINE=.TRUE.,
(PID.TID 0000.0001) > useDIAGNOSTICS=.TRUE.,
(PID.TID 0000.0001) > /
(PID.TID 0000.0001) 
(PID.TID 0000.0001)  PACKAGES_BOOT: finished reading data.pkg
(PID.TID 0000.0001)  PACKAGES_BOOT: On/Off package Summary
 --------  pkgs with a standard "usePKG" On/Off switch in "data.pkg":  --------
 pkg/kpp                  compiled   and   used ( useKPP                   = T )
 pkg/gmredi               compiled   and   used ( useGMRedi                = T )
 pkg/cal                  compiled   and   used ( useCAL                   = T )
 pkg/exf                  compiled   and   used ( useEXF                   = T )
 pkg/sbo                  compiled but not used ( useSBO                   = F )
 pkg/ptracers             compiled   and   used ( usePTRACERS              = T )
 pkg/gchem                compiled   and   used ( useGCHEM                 = T )
 pkg/offline              compiled   and   used ( useOffLine               = T )
 pkg/diagnostics          compiled   and   used ( useDiagnostics           = T )
 pkg/mnc                  compiled   and   used ( useMNC                   = T )
 -------- pkgs without standard "usePKG" On/Off switch in "data.pkg":  --------
 pkg/generic_advdiff      compiled   and   used ( useGAD                   = T )
 pkg/mom_common           compiled   and   used ( momStepping              = T )
 pkg/mom_vecinv           compiled but not used ( +vectorInvariantMomentum = F )
 pkg/mom_fluxform         compiled   and   used ( & not vectorInvariantMom = T )
 pkg/monitor              compiled   and   used ( monitorFreq > 0.         = T )
 pkg/timeave              compiled   and   used ( taveFreq > 0.            = T )
 pkg/rw                   compiled   and   used
 pkg/mdsio                compiled   and   used
(PID.TID 0000.0001)  PACKAGES_BOOT: End of package Summary
(PID.TID 0000.0001) 
(PID.TID 0000.0001)  MNC_READPARMS: opening file 'data.mnc'
(PID.TID 0000.0001)  OPEN_COPY_DATA_FILE: opening file data.mnc
(PID.TID 0000.0001) // =======================================================
(PID.TID 0000.0001) // Removing comments from "data.mnc"
(PID.TID 0000.0001) // =======================================================
(PID.TID 0000.0001)    1  &MNC_01
(PID.TID 0000.0001)    2  mnc_use_outdir=.TRUE.,
(PID.TID 0000.0001)    3  mnc_outdir_str='ecco_gud_',
(PID.TID 0000.0001)    4  mnc_outdir_date=.TRUE.,
(PID.TID 0000.0001)    5  monitor_mnc=.FALSE.,
(PID.TID 0000.0001)    6  snapshot_mnc=.TRUE.,
(PID.TID 0000.0001)    7  timeave_mnc=.TRUE.,
(PID.TID 0000.0001)    8  pickup_read_mnc=.FALSE.,
(PID.TID 0000.0001)    9  pickup_write_mnc=.FALSE.,
(PID.TID 0000.0001)   10  mnc_filefreq = 311040000.,
(PID.TID 0000.0001)   11  mnc_max_fsize = 2e12,
(PID.TID 0000.0001)   12  /
(PID.TID 0000.0001) // =======================================================
(PID.TID 0000.0001) // Parameter file "data.mnc"
(PID.TID 0000.0001) // =======================================================
(PID.TID 0000.0001) ># Example "data.mnc" file
(PID.TID 0000.0001) ># Lines beginning "#" are comments
(PID.TID 0000.0001) > &MNC_01
(PID.TID 0000.0001) ># mnc_echo_gvtypes=.FALSE.,
(PID.TID 0000.0001) ># mnc_use_indir=.FALSE.,
(PID.TID 0000.0001) > mnc_use_outdir=.TRUE.,
(PID.TID 0000.0001) > mnc_outdir_str='ecco_gud_',
(PID.TID 0000.0001) > mnc_outdir_date=.TRUE.,
(PID.TID 0000.0001) > monitor_mnc=.FALSE.,
(PID.TID 0000.0001) > snapshot_mnc=.TRUE.,
(PID.TID 0000.0001) > timeave_mnc=.TRUE.,
(PID.TID 0000.0001) > pickup_read_mnc=.FALSE.,
(PID.TID 0000.0001) > pickup_write_mnc=.FALSE.,
(PID.TID 0000.0001) > mnc_filefreq = 311040000.,
(PID.TID 0000.0001) > mnc_max_fsize = 2e12,
(PID.TID 0000.0001) > /
(PID.TID 0000.0001) ># Note: Some systems use & as the
(PID.TID 0000.0001) ># namelist terminator. Other systems
(PID.TID 0000.0001) ># use a / character.
(PID.TID 0000.0001) 
(PID.TID 0000.0001)  MNC_READPARMS: finished reading data.mnc
(PID.TID 0000.0001) CAL_READPARMS: opening data.cal
(PID.TID 0000.0001)  OPEN_COPY_DATA_FILE: opening file data.cal
(PID.TID 0000.0001) // =======================================================
(PID.TID 0000.0001) // Removing comments from "data.cal"
(PID.TID 0000.0001) // =======================================================
(PID.TID 0000.0001)    1  &CAL_NML
(PID.TID 0000.0001)    2  TheCalendar='model',
(PID.TID 0000.0001)    3  startDate_1=20000101,
(PID.TID 0000.0001)    4  startDate_2=000000,
(PID.TID 0000.0001)    5  calendarDumps = .TRUE.
(PID.TID 0000.0001)    6  /
(PID.TID 0000.0001) // =======================================================
(PID.TID 0000.0001) // Parameter file "data.cal"
(PID.TID 0000.0001) // =======================================================
(PID.TID 0000.0001) ># *******************
(PID.TID 0000.0001) ># Calendar Parameters
(PID.TID 0000.0001) ># *******************
(PID.TID 0000.0001) > &CAL_NML
(PID.TID 0000.0001) > TheCalendar='model',
(PID.TID 0000.0001) > startDate_1=20000101,
(PID.TID 0000.0001) > startDate_2=000000,
(PID.TID 0000.0001) > calendarDumps = .TRUE.
(PID.TID 0000.0001) > /
(PID.TID 0000.0001) 
(PID.TID 0000.0001) CAL_READPARMS: finished reading data.cal
(PID.TID 0000.0001) EXF_READPARMS: opening data.exf
(PID.TID 0000.0001)  OPEN_COPY_DATA_FILE: opening file data.exf
(PID.TID 0000.0001) // =======================================================
(PID.TID 0000.0001) // Removing comments from "data.exf"
(PID.TID 0000.0001) // =======================================================
(PID.TID 0000.0001)    1  &EXF_NML_01
(PID.TID 0000.0001)    2  exf_iprec         = 32,
(PID.TID 0000.0001)    3  exf_yftype        = 'RL',
(PID.TID 0000.0001)    4  useExfCheckRange  = .FALSE.,
(PID.TID 0000.0001)    5  repeatPeriod = 31104000.,
(PID.TID 0000.0001)    6  /
(PID.TID 0000.0001)    7  &EXF_NML_02
(PID.TID 0000.0001)    8  /
(PID.TID 0000.0001)    9  &EXF_NML_03
(PID.TID 0000.0001)   10  /
(PID.TID 0000.0001)   11  &EXF_NML_04
(PID.TID 0000.0001)   12  /
(PID.TID 0000.0001) // =======================================================
(PID.TID 0000.0001) // Parameter file "data.exf"
(PID.TID 0000.0001) // =======================================================
(PID.TID 0000.0001) ># *********************
(PID.TID 0000.0001) ># External Forcing Data
(PID.TID 0000.0001) ># *********************
(PID.TID 0000.0001) >#
(PID.TID 0000.0001) > &EXF_NML_01
(PID.TID 0000.0001) > exf_iprec         = 32,
(PID.TID 0000.0001) > exf_yftype        = 'RL',
(PID.TID 0000.0001) ># useExfYearlyFields= .TRUE.,
(PID.TID 0000.0001) ># twoDigitYear      = .TRUE.,
(PID.TID 0000.0001) > useExfCheckRange  = .FALSE.,
(PID.TID 0000.0001) > repeatPeriod = 31104000.,
(PID.TID 0000.0001) > /
(PID.TID 0000.0001) >#
(PID.TID 0000.0001) > &EXF_NML_02
(PID.TID 0000.0001) > /
(PID.TID 0000.0001) >#
(PID.TID 0000.0001) > &EXF_NML_03
(PID.TID 0000.0001) > /
(PID.TID 0000.0001) >#
(PID.TID 0000.0001) > &EXF_NML_04
(PID.TID 0000.0001) > /
(PID.TID 0000.0001) 
(PID.TID 0000.0001) EXF_READPARMS: reading EXF_NML_01
(PID.TID 0000.0001) EXF_READPARMS: reading EXF_NML_02
(PID.TID 0000.0001) EXF_READPARMS: reading EXF_NML_03
(PID.TID 0000.0001) EXF_READPARMS: finished reading data.exf
(PID.TID 0000.0001)  KPP_INIT: opening data.kpp
(PID.TID 0000.0001)  OPEN_COPY_DATA_FILE: opening file data.kpp
(PID.TID 0000.0001) // =======================================================
(PID.TID 0000.0001) // Removing comments from "data.kpp"
(PID.TID 0000.0001) // =======================================================
(PID.TID 0000.0001)    1  &KPP_PARM01
(PID.TID 0000.0001)    2  /
(PID.TID 0000.0001) // =======================================================
(PID.TID 0000.0001) // Parameter file "data.kpp"
(PID.TID 0000.0001) // =======================================================
(PID.TID 0000.0001) >#
(PID.TID 0000.0001) ># ***************
(PID.TID 0000.0001) ># Open boundaries
(PID.TID 0000.0001) ># ***************
(PID.TID 0000.0001) > &KPP_PARM01
(PID.TID 0000.0001) ># KPPwriteState   = .TRUE.,
(PID.TID 0000.0001) > /
(PID.TID 0000.0001) 
(PID.TID 0000.0001)  KPP_INIT: finished reading data.kpp
(PID.TID 0000.0001)  GM_READPARMS: opening data.gmredi
(PID.TID 0000.0001)  OPEN_COPY_DATA_FILE: opening file data.gmredi
(PID.TID 0000.0001) // =======================================================
(PID.TID 0000.0001) // Removing comments from "data.gmredi"
(PID.TID 0000.0001) // =======================================================
(PID.TID 0000.0001)    1
(PID.TID 0000.0001)    2
(PID.TID 0000.0001)    3 (default=GM_background_K)
(PID.TID 0000.0001)    4 form)
(PID.TID 0000.0001)    5
(PID.TID 0000.0001)    6  &GM_PARM01
(PID.TID 0000.0001)    7   GM_Small_Number    = 1.D-20,
(PID.TID 0000.0001)    8   GM_slopeSqCutoff   = 1.D+08,
(PID.TID 0000.0001)    9   GM_AdvForm         = .FALSE.,
(PID.TID 0000.0001)   10   GM_isopycK         = 1.D+3,
(PID.TID 0000.0001)   11   GM_background_K    = 1.D+3,
(PID.TID 0000.0001)   12   GM_maxSlope        = 1.D-2,
(PID.TID 0000.0001)   13   GM_taper_scheme    = 'dm95',
(PID.TID 0000.0001)   14   GM_Kmin_horiz      = 50.,
(PID.TID 0000.0001)   15   GM_Scrit           = 4.D-3,
(PID.TID 0000.0001)   16   GM_Sd              = 1.D-3,
(PID.TID 0000.0001)   17  /
(PID.TID 0000.0001)   18
(PID.TID 0000.0001) // =======================================================
(PID.TID 0000.0001) // Parameter file "data.gmredi"
(PID.TID 0000.0001) // =======================================================
(PID.TID 0000.0001) ># GM+Redi package parameters:
(PID.TID 0000.0001) >#     GM_Small_Number  :: epsilon used in computing the slope
(PID.TID 0000.0001) >#     GM_slopeSqCutoff :: slope^2 cut-off value
(PID.TID 0000.0001) >
(PID.TID 0000.0001) >#-from MOM :
(PID.TID 0000.0001) ># GM_background_K:      G & Mc.W  diffusion coefficient
(PID.TID 0000.0001) ># GM_maxSlope    :      max slope of isopycnals
(PID.TID 0000.0001) ># GM_Scrit       :      transition for scaling diffusion coefficient
(PID.TID 0000.0001) ># GM_Sd          :      half width scaling for diffusion coefficient
(PID.TID 0000.0001) ># GM_taper_scheme:      slope clipping or one of the tapering schemes
(PID.TID 0000.0001) ># GM_Kmin_horiz  :      horizontal diffusion minimum value
(PID.TID 0000.0001) >
(PID.TID 0000.0001) >#-Option parameters (needs to "define" options in GMREDI_OPTIONS.h")
(PID.TID 0000.0001) ># GM_isopycK     :      isopycnal diffusion coefficient
(PID.TID 0000.0001) >(default=GM_background_K)
(PID.TID 0000.0001) ># GM_AdvForm     :      turn on GM Advective form       (default=Skew flux
(PID.TID 0000.0001) >form)
(PID.TID 0000.0001) >
(PID.TID 0000.0001) > &GM_PARM01
(PID.TID 0000.0001) >  GM_Small_Number    = 1.D-20,
(PID.TID 0000.0001) >  GM_slopeSqCutoff   = 1.D+08,
(PID.TID 0000.0001) >  GM_AdvForm         = .FALSE.,
(PID.TID 0000.0001) >  GM_isopycK         = 1.D+3,
(PID.TID 0000.0001) >  GM_background_K    = 1.D+3,
(PID.TID 0000.0001) >  GM_maxSlope        = 1.D-2,
(PID.TID 0000.0001) >  GM_taper_scheme    = 'dm95',
(PID.TID 0000.0001) >  GM_Kmin_horiz      = 50.,
(PID.TID 0000.0001) >  GM_Scrit           = 4.D-3,
(PID.TID 0000.0001) >  GM_Sd              = 1.D-3,
(PID.TID 0000.0001) >#
(PID.TID 0000.0001) >###  GM_Visbeck_alpha   = 1.5D-2,
(PID.TID 0000.0001) >###  GM_Visbeck_alpha   = 0.D0,
(PID.TID 0000.0001) >###  GM_Visbeck_length  = 2.D+5,
(PID.TID 0000.0001) >###  GM_Visbeck_depth   = 1.D+3,
(PID.TID 0000.0001) >###  GM_Visbeck_maxval_K= 2.5D+3,
(PID.TID 0000.0001) > /
(PID.TID 0000.0001) >
(PID.TID 0000.0001) 
(PID.TID 0000.0001)  GM_READPARMS: finished reading data.gmredi
(PID.TID 0000.0001)  PTRACERS_READPARMS: opening data.ptracers
(PID.TID 0000.0001)  OPEN_COPY_DATA_FILE: opening file data.ptracers
(PID.TID 0000.0001) // =======================================================
(PID.TID 0000.0001) // Removing comments from "data.ptracers"
(PID.TID 0000.0001) // =======================================================
(PID.TID 0000.0001)    1  &PTRACERS_PARM01
(PID.TID 0000.0001)    2  PTRACERS_numInUse=233,
(PID.TID 0000.0001)    3  PTRACERS_Iter0= 0,
(PID.TID 0000.0001)    4  PTRACERS_advScheme=233*33,
(PID.TID 0000.0001)    5  PTRACERS_diffKh=233*0.E3,
(PID.TID 0000.0001)    6  PTRACERS_diffKr=233*1.E-5,
(PID.TID 0000.0001)    7  PTRACERS_useGMRedi=233*.TRUE.,
(PID.TID 0000.0001)    8  PTRACERS_useKPP=233*.TRUE.,
(PID.TID 0000.0001)    9  PTRACERS_names(1)= 'DIC',
(PID.TID 0000.0001)   10  PTRACERS_names(2)= 'NH4',
(PID.TID 0000.0001)   11  PTRACERS_names(3)= 'NO2',
(PID.TID 0000.0001)   12  PTRACERS_names(4)= 'NO3',
(PID.TID 0000.0001)   13  PTRACERS_names(5)= 'PO4',
(PID.TID 0000.0001)   14  PTRACERS_names(6)= 'SiO2',
(PID.TID 0000.0001)   15  PTRACERS_names(7)= 'FeT',
(PID.TID 0000.0001)   16  PTRACERS_names(8)= 'DOC',
(PID.TID 0000.0001)   17  PTRACERS_names(9)= 'DON',
(PID.TID 0000.0001)   18  PTRACERS_names(10)= 'DOP',
(PID.TID 0000.0001)   19  PTRACERS_names(11)= 'DOFe',
(PID.TID 0000.0001)   20  PTRACERS_names(12)= 'POC',
(PID.TID 0000.0001)   21  PTRACERS_names(13)= 'PON',
(PID.TID 0000.0001)   22  PTRACERS_names(14)= 'POP',
(PID.TID 0000.0001)   23  PTRACERS_names(15)= 'POSi',
(PID.TID 0000.0001)   24  PTRACERS_names(16)= 'POFe',
(PID.TID 0000.0001)   25  PTRACERS_names(17)= 'PIC',
(PID.TID 0000.0001)   26  PTRACERS_names(18)= 'ALK',
(PID.TID 0000.0001)   27  PTRACERS_names(19)= 'O2',
(PID.TID 0000.0001)   28  PTRACERS_names(20)= 'c01',
(PID.TID 0000.0001)   29  PTRACERS_names(21)= 'c02',
(PID.TID 0000.0001)   30  PTRACERS_names(22)= 'c03',
(PID.TID 0000.0001)   31  PTRACERS_names(23)= 'c04',
(PID.TID 0000.0001)   32  PTRACERS_names(24)= 'c05',
(PID.TID 0000.0001)   33  PTRACERS_names(25)= 'c06',
(PID.TID 0000.0001)   34  PTRACERS_names(26)= 'c07',
(PID.TID 0000.0001)   35  PTRACERS_names(27)= 'c08',
(PID.TID 0000.0001)   36  PTRACERS_names(28)= 'c09',
(PID.TID 0000.0001)   37  PTRACERS_names(29)= 'c10',
(PID.TID 0000.0001)   38  PTRACERS_names(30)= 'c11',
(PID.TID 0000.0001)   39  PTRACERS_names(31)= 'c12',
(PID.TID 0000.0001)   40  PTRACERS_names(32)= 'c13',
(PID.TID 0000.0001)   41  PTRACERS_names(33)= 'c14',
(PID.TID 0000.0001)   42  PTRACERS_names(34)= 'c15',
(PID.TID 0000.0001)   43  PTRACERS_names(35)= 'c16',
(PID.TID 0000.0001)   44  PTRACERS_names(36)= 'c17',
(PID.TID 0000.0001)   45  PTRACERS_names(37)= 'c18',
(PID.TID 0000.0001)   46  PTRACERS_names(38)= 'c19',
(PID.TID 0000.0001)   47  PTRACERS_names(39)= 'c20',
(PID.TID 0000.0001)   48  PTRACERS_names(40)= 'c21',
(PID.TID 0000.0001)   49  PTRACERS_names(41)= 'c22',
(PID.TID 0000.0001)   50  PTRACERS_names(42)= 'c23',
(PID.TID 0000.0001)   51  PTRACERS_names(43)= 'c24',
(PID.TID 0000.0001)   52  PTRACERS_names(44)= 'c25',
(PID.TID 0000.0001)   53  PTRACERS_names(45)= 'c26',
(PID.TID 0000.0001)   54  PTRACERS_names(46)= 'c27',
(PID.TID 0000.0001)   55  PTRACERS_names(47)= 'c28',
(PID.TID 0000.0001)   56  PTRACERS_names(48)= 'c29',
(PID.TID 0000.0001)   57  PTRACERS_names(49)= 'c30',
(PID.TID 0000.0001)   58  PTRACERS_names(50)= 'c31',
(PID.TID 0000.0001)   59  PTRACERS_names(51)= 'c32',
(PID.TID 0000.0001)   60  PTRACERS_names(52)= 'c33',
(PID.TID 0000.0001)   61  PTRACERS_names(53)= 'c34',
(PID.TID 0000.0001)   62  PTRACERS_names(54)= 'c35',
(PID.TID 0000.0001)   63  PTRACERS_names(55)= 'c36',
(PID.TID 0000.0001)   64  PTRACERS_names(56)= 'c37',
(PID.TID 0000.0001)   65  PTRACERS_names(57)= 'c38',
(PID.TID 0000.0001)   66  PTRACERS_names(58)= 'n01',
(PID.TID 0000.0001)   67  PTRACERS_names(59)= 'n02',
(PID.TID 0000.0001)   68  PTRACERS_names(60)= 'n03',
(PID.TID 0000.0001)   69  PTRACERS_names(61)= 'n04',
(PID.TID 0000.0001)   70  PTRACERS_names(62)= 'n05',
(PID.TID 0000.0001)   71  PTRACERS_names(63)= 'n06',
(PID.TID 0000.0001)   72  PTRACERS_names(64)= 'n07',
(PID.TID 0000.0001)   73  PTRACERS_names(65)= 'n08',
(PID.TID 0000.0001)   74  PTRACERS_names(66)= 'n09',
(PID.TID 0000.0001)   75  PTRACERS_names(67)= 'n10',
(PID.TID 0000.0001)   76  PTRACERS_names(68)= 'n11',
(PID.TID 0000.0001)   77  PTRACERS_names(69)= 'n12',
(PID.TID 0000.0001)   78  PTRACERS_names(70)= 'n13',
(PID.TID 0000.0001)   79  PTRACERS_names(71)= 'n14',
(PID.TID 0000.0001)   80  PTRACERS_names(72)= 'n15',
(PID.TID 0000.0001)   81  PTRACERS_names(73)= 'n16',
(PID.TID 0000.0001)   82  PTRACERS_names(74)= 'n17',
(PID.TID 0000.0001)   83  PTRACERS_names(75)= 'n18',
(PID.TID 0000.0001)   84  PTRACERS_names(76)= 'n19',
(PID.TID 0000.0001)   85  PTRACERS_names(77)= 'n20',
(PID.TID 0000.0001)   86  PTRACERS_names(78)= 'n21',
(PID.TID 0000.0001)   87  PTRACERS_names(79)= 'n22',
(PID.TID 0000.0001)   88  PTRACERS_names(80)= 'n23',
(PID.TID 0000.0001)   89  PTRACERS_names(81)= 'n24',
(PID.TID 0000.0001)   90  PTRACERS_names(82)= 'n25',
(PID.TID 0000.0001)   91  PTRACERS_names(83)= 'n26',
(PID.TID 0000.0001)   92  PTRACERS_names(84)= 'n27',
(PID.TID 0000.0001)   93  PTRACERS_names(85)= 'n28',
(PID.TID 0000.0001)   94  PTRACERS_names(86)= 'n29',
(PID.TID 0000.0001)   95  PTRACERS_names(87)= 'n30',
(PID.TID 0000.0001)   96  PTRACERS_names(88)= 'n31',
(PID.TID 0000.0001)   97  PTRACERS_names(89)= 'n32',
(PID.TID 0000.0001)   98  PTRACERS_names(90)= 'n33',
(PID.TID 0000.0001)   99  PTRACERS_names(91)= 'n34',
(PID.TID 0000.0001)  100  PTRACERS_names(92)= 'n35',
(PID.TID 0000.0001)  101  PTRACERS_names(93)= 'n36',
(PID.TID 0000.0001)  102  PTRACERS_names(94)= 'n37',
(PID.TID 0000.0001)  103  PTRACERS_names(95)= 'n38',
(PID.TID 0000.0001)  104  PTRACERS_names(96)= 'p01',
(PID.TID 0000.0001)  105  PTRACERS_names(97)= 'p02',
(PID.TID 0000.0001)  106  PTRACERS_names(98)= 'p03',
(PID.TID 0000.0001)  107  PTRACERS_names(99)= 'p04',
(PID.TID 0000.0001)  108  PTRACERS_names(100)= 'p05',
(PID.TID 0000.0001)  109  PTRACERS_names(101)= 'p06',
(PID.TID 0000.0001)  110  PTRACERS_names(102)= 'p07',
(PID.TID 0000.0001)  111  PTRACERS_names(103)= 'p08',
(PID.TID 0000.0001)  112  PTRACERS_names(104)= 'p09',
(PID.TID 0000.0001)  113  PTRACERS_names(105)= 'p10',
(PID.TID 0000.0001)  114  PTRACERS_names(106)= 'p11',
(PID.TID 0000.0001)  115  PTRACERS_names(107)= 'p12',
(PID.TID 0000.0001)  116  PTRACERS_names(108)= 'p13',
(PID.TID 0000.0001)  117  PTRACERS_names(109)= 'p14',
(PID.TID 0000.0001)  118  PTRACERS_names(110)= 'p15',
(PID.TID 0000.0001)  119  PTRACERS_names(111)= 'p16',
(PID.TID 0000.0001)  120  PTRACERS_names(112)= 'p17',
(PID.TID 0000.0001)  121  PTRACERS_names(113)= 'p18',
(PID.TID 0000.0001)  122  PTRACERS_names(114)= 'p19',
(PID.TID 0000.0001)  123  PTRACERS_names(115)= 'p20',
(PID.TID 0000.0001)  124  PTRACERS_names(116)= 'p21',
(PID.TID 0000.0001)  125  PTRACERS_names(117)= 'p22',
(PID.TID 0000.0001)  126  PTRACERS_names(118)= 'p23',
(PID.TID 0000.0001)  127  PTRACERS_names(119)= 'p24',
(PID.TID 0000.0001)  128  PTRACERS_names(120)= 'p25',
(PID.TID 0000.0001)  129  PTRACERS_names(121)= 'p26',
(PID.TID 0000.0001)  130  PTRACERS_names(122)= 'p27',
(PID.TID 0000.0001)  131  PTRACERS_names(123)= 'p28',
(PID.TID 0000.0001)  132  PTRACERS_names(124)= 'p29',
(PID.TID 0000.0001)  133  PTRACERS_names(125)= 'p30',
(PID.TID 0000.0001)  134  PTRACERS_names(126)= 'p31',
(PID.TID 0000.0001)  135  PTRACERS_names(127)= 'p32',
(PID.TID 0000.0001)  136  PTRACERS_names(128)= 'p33',
(PID.TID 0000.0001)  137  PTRACERS_names(129)= 'p34',
(PID.TID 0000.0001)  138  PTRACERS_names(130)= 'p35',
(PID.TID 0000.0001)  139  PTRACERS_names(131)= 'p36',
(PID.TID 0000.0001)  140  PTRACERS_names(132)= 'p37',
(PID.TID 0000.0001)  141  PTRACERS_names(133)= 'p38',
(PID.TID 0000.0001)  142  PTRACERS_names(134)= 'si01',
(PID.TID 0000.0001)  143  PTRACERS_names(135)= 'si02',
(PID.TID 0000.0001)  144  PTRACERS_names(136)= 'si03',
(PID.TID 0000.0001)  145  PTRACERS_names(137)= 'si04',
(PID.TID 0000.0001)  146  PTRACERS_names(138)= 'si05',
(PID.TID 0000.0001)  147  PTRACERS_names(139)= 'si06',
(PID.TID 0000.0001)  148  PTRACERS_names(140)= 'si07',
(PID.TID 0000.0001)  149  PTRACERS_names(141)= 'si08',
(PID.TID 0000.0001)  150  PTRACERS_names(142)= 'si09',
(PID.TID 0000.0001)  151  PTRACERS_names(143)= 'si10',
(PID.TID 0000.0001)  152  PTRACERS_names(144)= 'si11',
(PID.TID 0000.0001)  153  PTRACERS_names(145)= 'si12',
(PID.TID 0000.0001)  154  PTRACERS_names(146)= 'si13',
(PID.TID 0000.0001)  155  PTRACERS_names(147)= 'si14',
(PID.TID 0000.0001)  156  PTRACERS_names(148)= 'si15',
(PID.TID 0000.0001)  157  PTRACERS_names(149)= 'si16',
(PID.TID 0000.0001)  158  PTRACERS_names(150)= 'si17',
(PID.TID 0000.0001)  159  PTRACERS_names(151)= 'si18',
(PID.TID 0000.0001)  160  PTRACERS_names(152)= 'si19',
(PID.TID 0000.0001)  161  PTRACERS_names(153)= 'si20',
(PID.TID 0000.0001)  162  PTRACERS_names(154)= 'si21',
(PID.TID 0000.0001)  163  PTRACERS_names(155)= 'si22',
(PID.TID 0000.0001)  164  PTRACERS_names(156)= 'si23',
(PID.TID 0000.0001)  165  PTRACERS_names(157)= 'si24',
(PID.TID 0000.0001)  166  PTRACERS_names(158)= 'si25',
(PID.TID 0000.0001)  167  PTRACERS_names(159)= 'si26',
(PID.TID 0000.0001)  168  PTRACERS_names(160)= 'si27',
(PID.TID 0000.0001)  169  PTRACERS_names(161)= 'si28',
(PID.TID 0000.0001)  170  PTRACERS_names(162)= 'si29',
(PID.TID 0000.0001)  171  PTRACERS_names(163)= 'si30',
(PID.TID 0000.0001)  172  PTRACERS_names(164)= 'si31',
(PID.TID 0000.0001)  173  PTRACERS_names(165)= 'si32',
(PID.TID 0000.0001)  174  PTRACERS_names(166)= 'si33',
(PID.TID 0000.0001)  175  PTRACERS_names(167)= 'si34',
(PID.TID 0000.0001)  176  PTRACERS_names(168)= 'si35',
(PID.TID 0000.0001)  177  PTRACERS_names(169)= 'si36',
(PID.TID 0000.0001)  178  PTRACERS_names(170)= 'si37',
(PID.TID 0000.0001)  179  PTRACERS_names(171)= 'si38',
(PID.TID 0000.0001)  180  PTRACERS_names(172)= 'fe01',
(PID.TID 0000.0001)  181  PTRACERS_names(173)= 'fe02',
(PID.TID 0000.0001)  182  PTRACERS_names(174)= 'fe03',
(PID.TID 0000.0001)  183  PTRACERS_names(175)= 'fe04',
(PID.TID 0000.0001)  184  PTRACERS_names(176)= 'fe05',
(PID.TID 0000.0001)  185  PTRACERS_names(177)= 'fe06',
(PID.TID 0000.0001)  186  PTRACERS_names(178)= 'fe07',
(PID.TID 0000.0001)  187  PTRACERS_names(179)= 'fe08',
(PID.TID 0000.0001)  188  PTRACERS_names(180)= 'fe09',
(PID.TID 0000.0001)  189  PTRACERS_names(181)= 'fe10',
(PID.TID 0000.0001)  190  PTRACERS_names(182)= 'fe11',
(PID.TID 0000.0001)  191  PTRACERS_names(183)= 'fe12',
(PID.TID 0000.0001)  192  PTRACERS_names(184)= 'fe13',
(PID.TID 0000.0001)  193  PTRACERS_names(185)= 'fe14',
(PID.TID 0000.0001)  194  PTRACERS_names(186)= 'fe15',
(PID.TID 0000.0001)  195  PTRACERS_names(187)= 'fe16',
(PID.TID 0000.0001)  196  PTRACERS_names(188)= 'fe17',
(PID.TID 0000.0001)  197  PTRACERS_names(189)= 'fe18',
(PID.TID 0000.0001)  198  PTRACERS_names(190)= 'fe19',
(PID.TID 0000.0001)  199  PTRACERS_names(191)= 'fe20',
(PID.TID 0000.0001)  200  PTRACERS_names(192)= 'fe21',
(PID.TID 0000.0001)  201  PTRACERS_names(193)= 'fe22',
(PID.TID 0000.0001)  202  PTRACERS_names(194)= 'fe23',
(PID.TID 0000.0001)  203  PTRACERS_names(195)= 'fe24',
(PID.TID 0000.0001)  204  PTRACERS_names(196)= 'fe25',
(PID.TID 0000.0001)  205  PTRACERS_names(197)= 'fe26',
(PID.TID 0000.0001)  206  PTRACERS_names(198)= 'fe27',
(PID.TID 0000.0001)  207  PTRACERS_names(199)= 'fe28',
(PID.TID 0000.0001)  208  PTRACERS_names(200)= 'fe29',
(PID.TID 0000.0001)  209  PTRACERS_names(201)= 'fe30',
(PID.TID 0000.0001)  210  PTRACERS_names(202)= 'fe31',
(PID.TID 0000.0001)  211  PTRACERS_names(203)= 'fe32',
(PID.TID 0000.0001)  212  PTRACERS_names(204)= 'fe33',
(PID.TID 0000.0001)  213  PTRACERS_names(205)= 'fe34',
(PID.TID 0000.0001)  214  PTRACERS_names(206)= 'fe35',
(PID.TID 0000.0001)  215  PTRACERS_names(207)= 'fe36',
(PID.TID 0000.0001)  216  PTRACERS_names(208)= 'fe37',
(PID.TID 0000.0001)  217  PTRACERS_names(209)= 'fe38',
(PID.TID 0000.0001)  218  PTRACERS_names(210)= 'Chl01',
(PID.TID 0000.0001)  219  PTRACERS_names(211)= 'Chl02',
(PID.TID 0000.0001)  220  PTRACERS_names(212)= 'Chl03',
(PID.TID 0000.0001)  221  PTRACERS_names(213)= 'Chl04',
(PID.TID 0000.0001)  222  PTRACERS_names(214)= 'Chl05',
(PID.TID 0000.0001)  223  PTRACERS_names(215)= 'Chl06',
(PID.TID 0000.0001)  224  PTRACERS_names(216)= 'Chl07',
(PID.TID 0000.0001)  225  PTRACERS_names(217)= 'Chl08',
(PID.TID 0000.0001)  226  PTRACERS_names(218)= 'Chl09',
(PID.TID 0000.0001)  227  PTRACERS_names(219)= 'Chl10',
(PID.TID 0000.0001)  228  PTRACERS_names(220)= 'Chl11',
(PID.TID 0000.0001)  229  PTRACERS_names(221)= 'Chl12',
(PID.TID 0000.0001)  230  PTRACERS_names(222)= 'Chl13',
(PID.TID 0000.0001)  231  PTRACERS_names(223)= 'Chl14',
(PID.TID 0000.0001)  232  PTRACERS_names(224)= 'Chl15',
(PID.TID 0000.0001)  233  PTRACERS_names(225)= 'Chl16',
(PID.TID 0000.0001)  234  PTRACERS_names(226)= 'Chl17',
(PID.TID 0000.0001)  235  PTRACERS_names(227)= 'Chl18',
(PID.TID 0000.0001)  236  PTRACERS_names(228)= 'Chl19',
(PID.TID 0000.0001)  237  PTRACERS_names(229)= 'Chl20',
(PID.TID 0000.0001)  238  PTRACERS_names(230)= 'Chl21',
(PID.TID 0000.0001)  239  PTRACERS_names(231)= 'Chl22',
(PID.TID 0000.0001)  240  PTRACERS_names(232)= 'Chl23',
(PID.TID 0000.0001)  241  PTRACERS_names(233)= 'Chl24',
(PID.TID 0000.0001)  242  PTRACERS_units(1)='mmol C/m^3',
(PID.TID 0000.0001)  243  PTRACERS_units(2)='mmol N/m^3',
(PID.TID 0000.0001)  244  PTRACERS_units(3)='mmol N/m^3',
(PID.TID 0000.0001)  245  PTRACERS_units(4)='mmol N/m^3',
(PID.TID 0000.0001)  246  PTRACERS_units(5)='mmol P/m^3',
(PID.TID 0000.0001)  247  PTRACERS_units(6)='mmol Si/m^3',
(PID.TID 0000.0001)  248  PTRACERS_units(7)='mmol Fe/m^3',
(PID.TID 0000.0001)  249  PTRACERS_units(8)='mmol C/m^3',
(PID.TID 0000.0001)  250  PTRACERS_units(9)='mmol N/m^3',
(PID.TID 0000.0001)  251  PTRACERS_units(10)='mmol P/m^3',
(PID.TID 0000.0001)  252  PTRACERS_units(11)='mmol Fe/m^3',
(PID.TID 0000.0001)  253  PTRACERS_units(12)='mmol C/m^3',
(PID.TID 0000.0001)  254  PTRACERS_units(13)='mmol N/m^3',
(PID.TID 0000.0001)  255  PTRACERS_units(14)='mmol P/m^3',
(PID.TID 0000.0001)  256  PTRACERS_units(15)='mmol Si/m^3',
(PID.TID 0000.0001)  257  PTRACERS_units(16)='mmol Fe/m^3',
(PID.TID 0000.0001)  258  PTRACERS_units(17)='mmol C/m^3',
(PID.TID 0000.0001)  259  PTRACERS_units(18)='mmol eq/m^3',
(PID.TID 0000.0001)  260  PTRACERS_units(19)='mmol O/m^3',
(PID.TID 0000.0001)  261  PTRACERS_units(20:57)=38*'mmol C/m^3',
(PID.TID 0000.0001)  262  PTRACERS_units(58:95)=38*'mmol N/m^3',
(PID.TID 0000.0001)  263  PTRACERS_units(96:133)=38*'mmol P/m^3',
(PID.TID 0000.0001)  264  PTRACERS_units(134:171)=38*'mmol Si/m^3',
(PID.TID 0000.0001)  265  PTRACERS_units(172:209)=38*'mmol Fe/m^3',
(PID.TID 0000.0001)  266  PTRACERS_units(210:233)=24*'mg Chl a/m^3',
(PID.TID 0000.0001)  267  PTRACERS_initialFile(1)='../../../input/eccov3_R8/glodap_tco2_ann-3d.bin',
(PID.TID 0000.0001)  268  PTRACERS_initialFile(2)='../../../input/DARWIN_ECCO_run17_R8/nh4_y2000.data',
(PID.TID 0000.0001)  269  PTRACERS_initialFile(3)='../../../input/DARWIN_ECCO_run17_R8/no2_y2000.data',
(PID.TID 0000.0001)  270  PTRACERS_initialFile(4)='../../../input/eccov3_R8/lev01_nitrate_ann-3d.bin',
(PID.TID 0000.0001)  271  PTRACERS_initialFile(5)='../../../input/eccov3_R8/lev01_phosphate_ann-3d.bin',
(PID.TID 0000.0001)  272  PTRACERS_initialFile(6)='../../../input/eccov3_R8/lev01_silicate_ann-3d.bin',
(PID.TID 0000.0001)  273  PTRACERS_initialFile(7)='../../../input/DARWIN_ECCO_run17_R8/fet_y2000.data',
(PID.TID 0000.0001)  274  PTRACERS_initialFile(8)='../../../input/DARWIN_ECCO_run17_R8/doc_y2000.data',
(PID.TID 0000.0001)  275  PTRACERS_initialFile(9)='../../../input/DARWIN_ECCO_run17_R8/don_y2000.data',
(PID.TID 0000.0001)  276  PTRACERS_initialFile(10)='../../../input/DARWIN_ECCO_run17_R8/dop_y2000.data',
(PID.TID 0000.0001)  277  PTRACERS_initialFile(11)='../../../input/DARWIN_ECCO_run17_R8/dofe_y2000.data',
(PID.TID 0000.0001)  278  PTRACERS_initialFile(12)='../../../input/DARWIN_ECCO_run17_R8/poc_y2000.data',
(PID.TID 0000.0001)  279  PTRACERS_initialFile(13)='../../../input/DARWIN_ECCO_run17_R8/pon_y2000.data',
(PID.TID 0000.0001)  280  PTRACERS_initialFile(14)='../../../input/DARWIN_ECCO_run17_R8/pop_y2000.data',
(PID.TID 0000.0001)  281  PTRACERS_initialFile(15)='../../../input/DARWIN_ECCO_run17_R8/posi_y2000.data',
(PID.TID 0000.0001)  282  PTRACERS_initialFile(16)='../../../input/DARWIN_ECCO_run17_R8/pofe_y2000.data',
(PID.TID 0000.0001)  283  PTRACERS_initialFile(17)='../../../input/DARWIN_ECCO_run17_R8/pic_y2000.data',
(PID.TID 0000.0001)  284  PTRACERS_initialFile(18)='../../../input/eccov3_R8/glodap_alk_ann-3d.bin',
(PID.TID 0000.0001)  285  PTRACERS_initialFile(19)='../../../input/eccov3_R8/lev01_oxygen_micromolar_ann-3d.bin',
(PID.TID 0000.0001)  286  PTRACERS_initialFile(20:57)=38*'../../../input/eccov3_R8/phy78_x120_lev01.bin',
(PID.TID 0000.0001)  287  PTRACERS_initialFile(58:61)=4*'../../../input/eccov3_R8/phy78_x16_lev01.bin',
(PID.TID 0000.0001)  288  PTRACERS_initialFile(62)=     '../../../input/eccov3_R8/phy78_x40_lev01.bin',
(PID.TID 0000.0001)  289  PTRACERS_initialFile(63:64)=2*'../../../input/eccov3_R8/phy78_x16_lev01.bin',
(PID.TID 0000.0001)  290  PTRACERS_initialFile(65)=     '../../../input/eccov3_R8/phy78_x40_lev01.bin',
(PID.TID 0000.0001)  291  PTRACERS_initialFile(66:67)=2*'../../../input/eccov3_R8/phy78_x16_lev01.bin',
(PID.TID 0000.0001)  292  PTRACERS_initialFile(68)=     '../../../input/eccov3_R8/phy78_x40_lev01.bin',
(PID.TID 0000.0001)  293  PTRACERS_initialFile(69:70)=2*'../../../input/eccov3_R8/phy78_x16_lev01.bin',
(PID.TID 0000.0001)  294  PTRACERS_initialFile(71)=     '../../../input/eccov3_R8/phy78_x40_lev01.bin',
(PID.TID 0000.0001)  295  PTRACERS_initialFile(72:73)=2*'../../../input/eccov3_R8/phy78_x16_lev01.bin',
(PID.TID 0000.0001)  296  PTRACERS_initialFile(74)=     '../../../input/eccov3_R8/phy78_x40_lev01.bin',
(PID.TID 0000.0001)  297  PTRACERS_initialFile(75:81)=7*'../../../input/eccov3_R8/phy78_x16_lev01.bin',
(PID.TID 0000.0001)  298  PTRACERS_initialFile(82:95)=14*'../../../input/eccov3_R8/phy78_x16_lev01.bin',
(PID.TID 0000.0001)  299  PTRACERS_initialFile(96:133)=38*'../../../input/eccov3_R8/phy78_lev01.bin',
(PID.TID 0000.0001)  300  PTRACERS_initialFile(134:139)=6*' ',
(PID.TID 0000.0001)  301  PTRACERS_initialFile(140)=      '../../../input/eccov3_R8/phy78_x16_lev01.bin',
(PID.TID 0000.0001)  302  PTRACERS_initialFile(141:142)=2*' ',
(PID.TID 0000.0001)  303  PTRACERS_initialFile(143)=      '../../../input/eccov3_R8/phy78_x16_lev01.bin',
(PID.TID 0000.0001)  304  PTRACERS_initialFile(144:145)=2*' ',
(PID.TID 0000.0001)  305  PTRACERS_initialFile(146)=      '../../../input/eccov3_R8/phy78_x16_lev01.bin',
(PID.TID 0000.0001)  306  PTRACERS_initialFile(147:148)=2*' ',
(PID.TID 0000.0001)  307  PTRACERS_initialFile(149)=      '../../../input/eccov3_R8/phy78_x16_lev01.bin',
(PID.TID 0000.0001)  308  PTRACERS_initialFile(150:151)=2*' ',
(PID.TID 0000.0001)  309  PTRACERS_initialFile(152)=      '../../../input/eccov3_R8/phy78_x16_lev01.bin',
(PID.TID 0000.0001)  310  PTRACERS_initialFile(153)=      ' ',
(PID.TID 0000.0001)  311  PTRACERS_initialFile(154:157)=4*'../../../input/eccov3_R8/phy78_x16_lev01.bin',
(PID.TID 0000.0001)  312  PTRACERS_initialFile(158:171)=14*' ',
(PID.TID 0000.0001)  313  PTRACERS_initialFile(172:175)=4*'../../../input/eccov3_R8/phy78_x0.001_lev01.bin',
(PID.TID 0000.0001)  314  PTRACERS_initialFile(176)=     '../../../input/eccov3_R8/phy78_x0.004_lev01.bin',
(PID.TID 0000.0001)  315  PTRACERS_initialFile(177:178)=2*'../../../input/eccov3_R8/phy78_x0.001_lev01.bin',
(PID.TID 0000.0001)  316  PTRACERS_initialFile(179)=     '../../../input/eccov3_R8/phy78_x0.004_lev01.bin',
(PID.TID 0000.0001)  317  PTRACERS_initialFile(180:181)=2*'../../../input/eccov3_R8/phy78_x0.001_lev01.bin',
(PID.TID 0000.0001)  318  PTRACERS_initialFile(182)=     '../../../input/eccov3_R8/phy78_x0.004_lev01.bin',
(PID.TID 0000.0001)  319  PTRACERS_initialFile(183:184)=2*'../../../input/eccov3_R8/phy78_x0.001_lev01.bin',
(PID.TID 0000.0001)  320  PTRACERS_initialFile(185)=     '../../../input/eccov3_R8/phy78_x0.004_lev01.bin',
(PID.TID 0000.0001)  321  PTRACERS_initialFile(186:187)=2*'../../../input/eccov3_R8/phy78_x0.001_lev01.bin',
(PID.TID 0000.0001)  322  PTRACERS_initialFile(188)=     '../../../input/eccov3_R8/phy78_x0.004_lev01.bin',
(PID.TID 0000.0001)  323  PTRACERS_initialFile(189:195)=7*'../../../input/eccov3_R8/phy78_x0.001_lev01.bin',
(PID.TID 0000.0001)  324  PTRACERS_initialFile(196:209)=14*'../../../input/eccov3_R8/phy78_x0.001_lev01.bin',
(PID.TID 0000.0001)  325  PTRACERS_initialFile(210:233)=24*' ',
(PID.TID 0000.0001)  326  /
(PID.TID 0000.0001) // =======================================================
(PID.TID 0000.0001) // Parameter file "data.ptracers"
(PID.TID 0000.0001) // =======================================================
(PID.TID 0000.0001) > &PTRACERS_PARM01
(PID.TID 0000.0001) > PTRACERS_numInUse=233,
(PID.TID 0000.0001) > PTRACERS_Iter0= 0,
(PID.TID 0000.0001) >#
(PID.TID 0000.0001) > PTRACERS_advScheme=233*33,
(PID.TID 0000.0001) > PTRACERS_diffKh=233*0.E3,
(PID.TID 0000.0001) > PTRACERS_diffKr=233*1.E-5,
(PID.TID 0000.0001) > PTRACERS_useGMRedi=233*.TRUE.,
(PID.TID 0000.0001) > PTRACERS_useKPP=233*.TRUE.,
(PID.TID 0000.0001) >#
(PID.TID 0000.0001) > PTRACERS_names(1)= 'DIC',
(PID.TID 0000.0001) > PTRACERS_names(2)= 'NH4',
(PID.TID 0000.0001) > PTRACERS_names(3)= 'NO2',
(PID.TID 0000.0001) > PTRACERS_names(4)= 'NO3',
(PID.TID 0000.0001) > PTRACERS_names(5)= 'PO4',
(PID.TID 0000.0001) > PTRACERS_names(6)= 'SiO2',
(PID.TID 0000.0001) > PTRACERS_names(7)= 'FeT',
(PID.TID 0000.0001) > PTRACERS_names(8)= 'DOC',
(PID.TID 0000.0001) > PTRACERS_names(9)= 'DON',
(PID.TID 0000.0001) > PTRACERS_names(10)= 'DOP',
(PID.TID 0000.0001) > PTRACERS_names(11)= 'DOFe',
(PID.TID 0000.0001) > PTRACERS_names(12)= 'POC',
(PID.TID 0000.0001) > PTRACERS_names(13)= 'PON',
(PID.TID 0000.0001) > PTRACERS_names(14)= 'POP',
(PID.TID 0000.0001) > PTRACERS_names(15)= 'POSi',
(PID.TID 0000.0001) > PTRACERS_names(16)= 'POFe',
(PID.TID 0000.0001) > PTRACERS_names(17)= 'PIC',
(PID.TID 0000.0001) > PTRACERS_names(18)= 'ALK',
(PID.TID 0000.0001) > PTRACERS_names(19)= 'O2',
(PID.TID 0000.0001) > PTRACERS_names(20)= 'c01',
(PID.TID 0000.0001) > PTRACERS_names(21)= 'c02',
(PID.TID 0000.0001) > PTRACERS_names(22)= 'c03',
(PID.TID 0000.0001) > PTRACERS_names(23)= 'c04',
(PID.TID 0000.0001) > PTRACERS_names(24)= 'c05',
(PID.TID 0000.0001) > PTRACERS_names(25)= 'c06',
(PID.TID 0000.0001) > PTRACERS_names(26)= 'c07',
(PID.TID 0000.0001) > PTRACERS_names(27)= 'c08',
(PID.TID 0000.0001) > PTRACERS_names(28)= 'c09',
(PID.TID 0000.0001) > PTRACERS_names(29)= 'c10',
(PID.TID 0000.0001) > PTRACERS_names(30)= 'c11',
(PID.TID 0000.0001) > PTRACERS_names(31)= 'c12',
(PID.TID 0000.0001) > PTRACERS_names(32)= 'c13',
(PID.TID 0000.0001) > PTRACERS_names(33)= 'c14',
(PID.TID 0000.0001) > PTRACERS_names(34)= 'c15',
(PID.TID 0000.0001) > PTRACERS_names(35)= 'c16',
(PID.TID 0000.0001) > PTRACERS_names(36)= 'c17',
(PID.TID 0000.0001) > PTRACERS_names(37)= 'c18',
(PID.TID 0000.0001) > PTRACERS_names(38)= 'c19',
(PID.TID 0000.0001) > PTRACERS_names(39)= 'c20',
(PID.TID 0000.0001) > PTRACERS_names(40)= 'c21',
(PID.TID 0000.0001) > PTRACERS_names(41)= 'c22',
(PID.TID 0000.0001) > PTRACERS_names(42)= 'c23',
(PID.TID 0000.0001) > PTRACERS_names(43)= 'c24',
(PID.TID 0000.0001) > PTRACERS_names(44)= 'c25',
(PID.TID 0000.0001) > PTRACERS_names(45)= 'c26',
(PID.TID 0000.0001) > PTRACERS_names(46)= 'c27',
(PID.TID 0000.0001) > PTRACERS_names(47)= 'c28',
(PID.TID 0000.0001) > PTRACERS_names(48)= 'c29',
(PID.TID 0000.0001) > PTRACERS_names(49)= 'c30',
(PID.TID 0000.0001) > PTRACERS_names(50)= 'c31',
(PID.TID 0000.0001) > PTRACERS_names(51)= 'c32',
(PID.TID 0000.0001) > PTRACERS_names(52)= 'c33',
(PID.TID 0000.0001) > PTRACERS_names(53)= 'c34',
(PID.TID 0000.0001) > PTRACERS_names(54)= 'c35',
(PID.TID 0000.0001) > PTRACERS_names(55)= 'c36',
(PID.TID 0000.0001) > PTRACERS_names(56)= 'c37',
(PID.TID 0000.0001) > PTRACERS_names(57)= 'c38',
(PID.TID 0000.0001) > PTRACERS_names(58)= 'n01',
(PID.TID 0000.0001) > PTRACERS_names(59)= 'n02',
(PID.TID 0000.0001) > PTRACERS_names(60)= 'n03',
(PID.TID 0000.0001) > PTRACERS_names(61)= 'n04',
(PID.TID 0000.0001) > PTRACERS_names(62)= 'n05',
(PID.TID 0000.0001) > PTRACERS_names(63)= 'n06',
(PID.TID 0000.0001) > PTRACERS_names(64)= 'n07',
(PID.TID 0000.0001) > PTRACERS_names(65)= 'n08',
(PID.TID 0000.0001) > PTRACERS_names(66)= 'n09',
(PID.TID 0000.0001) > PTRACERS_names(67)= 'n10',
(PID.TID 0000.0001) > PTRACERS_names(68)= 'n11',
(PID.TID 0000.0001) > PTRACERS_names(69)= 'n12',
(PID.TID 0000.0001) > PTRACERS_names(70)= 'n13',
(PID.TID 0000.0001) > PTRACERS_names(71)= 'n14',
(PID.TID 0000.0001) > PTRACERS_names(72)= 'n15',
(PID.TID 0000.0001) > PTRACERS_names(73)= 'n16',
(PID.TID 0000.0001) > PTRACERS_names(74)= 'n17',
(PID.TID 0000.0001) > PTRACERS_names(75)= 'n18',
(PID.TID 0000.0001) > PTRACERS_names(76)= 'n19',
(PID.TID 0000.0001) > PTRACERS_names(77)= 'n20',
(PID.TID 0000.0001) > PTRACERS_names(78)= 'n21',
(PID.TID 0000.0001) > PTRACERS_names(79)= 'n22',
(PID.TID 0000.0001) > PTRACERS_names(80)= 'n23',
(PID.TID 0000.0001) > PTRACERS_names(81)= 'n24',
(PID.TID 0000.0001) > PTRACERS_names(82)= 'n25',
(PID.TID 0000.0001) > PTRACERS_names(83)= 'n26',
(PID.TID 0000.0001) > PTRACERS_names(84)= 'n27',
(PID.TID 0000.0001) > PTRACERS_names(85)= 'n28',
(PID.TID 0000.0001) > PTRACERS_names(86)= 'n29',
(PID.TID 0000.0001) > PTRACERS_names(87)= 'n30',
(PID.TID 0000.0001) > PTRACERS_names(88)= 'n31',
(PID.TID 0000.0001) > PTRACERS_names(89)= 'n32',
(PID.TID 0000.0001) > PTRACERS_names(90)= 'n33',
(PID.TID 0000.0001) > PTRACERS_names(91)= 'n34',
(PID.TID 0000.0001) > PTRACERS_names(92)= 'n35',
(PID.TID 0000.0001) > PTRACERS_names(93)= 'n36',
(PID.TID 0000.0001) > PTRACERS_names(94)= 'n37',
(PID.TID 0000.0001) > PTRACERS_names(95)= 'n38',
(PID.TID 0000.0001) > PTRACERS_names(96)= 'p01',
(PID.TID 0000.0001) > PTRACERS_names(97)= 'p02',
(PID.TID 0000.0001) > PTRACERS_names(98)= 'p03',
(PID.TID 0000.0001) > PTRACERS_names(99)= 'p04',
(PID.TID 0000.0001) > PTRACERS_names(100)= 'p05',
(PID.TID 0000.0001) > PTRACERS_names(101)= 'p06',
(PID.TID 0000.0001) > PTRACERS_names(102)= 'p07',
(PID.TID 0000.0001) > PTRACERS_names(103)= 'p08',
(PID.TID 0000.0001) > PTRACERS_names(104)= 'p09',
(PID.TID 0000.0001) > PTRACERS_names(105)= 'p10',
(PID.TID 0000.0001) > PTRACERS_names(106)= 'p11',
(PID.TID 0000.0001) > PTRACERS_names(107)= 'p12',
(PID.TID 0000.0001) > PTRACERS_names(108)= 'p13',
(PID.TID 0000.0001) > PTRACERS_names(109)= 'p14',
(PID.TID 0000.0001) > PTRACERS_names(110)= 'p15',
(PID.TID 0000.0001) > PTRACERS_names(111)= 'p16',
(PID.TID 0000.0001) > PTRACERS_names(112)= 'p17',
(PID.TID 0000.0001) > PTRACERS_names(113)= 'p18',
(PID.TID 0000.0001) > PTRACERS_names(114)= 'p19',
(PID.TID 0000.0001) > PTRACERS_names(115)= 'p20',
(PID.TID 0000.0001) > PTRACERS_names(116)= 'p21',
(PID.TID 0000.0001) > PTRACERS_names(117)= 'p22',
(PID.TID 0000.0001) > PTRACERS_names(118)= 'p23',
(PID.TID 0000.0001) > PTRACERS_names(119)= 'p24',
(PID.TID 0000.0001) > PTRACERS_names(120)= 'p25',
(PID.TID 0000.0001) > PTRACERS_names(121)= 'p26',
(PID.TID 0000.0001) > PTRACERS_names(122)= 'p27',
(PID.TID 0000.0001) > PTRACERS_names(123)= 'p28',
(PID.TID 0000.0001) > PTRACERS_names(124)= 'p29',
(PID.TID 0000.0001) > PTRACERS_names(125)= 'p30',
(PID.TID 0000.0001) > PTRACERS_names(126)= 'p31',
(PID.TID 0000.0001) > PTRACERS_names(127)= 'p32',
(PID.TID 0000.0001) > PTRACERS_names(128)= 'p33',
(PID.TID 0000.0001) > PTRACERS_names(129)= 'p34',
(PID.TID 0000.0001) > PTRACERS_names(130)= 'p35',
(PID.TID 0000.0001) > PTRACERS_names(131)= 'p36',
(PID.TID 0000.0001) > PTRACERS_names(132)= 'p37',
(PID.TID 0000.0001) > PTRACERS_names(133)= 'p38',
(PID.TID 0000.0001) > PTRACERS_names(134)= 'si01',
(PID.TID 0000.0001) > PTRACERS_names(135)= 'si02',
(PID.TID 0000.0001) > PTRACERS_names(136)= 'si03',
(PID.TID 0000.0001) > PTRACERS_names(137)= 'si04',
(PID.TID 0000.0001) > PTRACERS_names(138)= 'si05',
(PID.TID 0000.0001) > PTRACERS_names(139)= 'si06',
(PID.TID 0000.0001) > PTRACERS_names(140)= 'si07',
(PID.TID 0000.0001) > PTRACERS_names(141)= 'si08',
(PID.TID 0000.0001) > PTRACERS_names(142)= 'si09',
(PID.TID 0000.0001) > PTRACERS_names(143)= 'si10',
(PID.TID 0000.0001) > PTRACERS_names(144)= 'si11',
(PID.TID 0000.0001) > PTRACERS_names(145)= 'si12',
(PID.TID 0000.0001) > PTRACERS_names(146)= 'si13',
(PID.TID 0000.0001) > PTRACERS_names(147)= 'si14',
(PID.TID 0000.0001) > PTRACERS_names(148)= 'si15',
(PID.TID 0000.0001) > PTRACERS_names(149)= 'si16',
(PID.TID 0000.0001) > PTRACERS_names(150)= 'si17',
(PID.TID 0000.0001) > PTRACERS_names(151)= 'si18',
(PID.TID 0000.0001) > PTRACERS_names(152)= 'si19',
(PID.TID 0000.0001) > PTRACERS_names(153)= 'si20',
(PID.TID 0000.0001) > PTRACERS_names(154)= 'si21',
(PID.TID 0000.0001) > PTRACERS_names(155)= 'si22',
(PID.TID 0000.0001) > PTRACERS_names(156)= 'si23',
(PID.TID 0000.0001) > PTRACERS_names(157)= 'si24',
(PID.TID 0000.0001) > PTRACERS_names(158)= 'si25',
(PID.TID 0000.0001) > PTRACERS_names(159)= 'si26',
(PID.TID 0000.0001) > PTRACERS_names(160)= 'si27',
(PID.TID 0000.0001) > PTRACERS_names(161)= 'si28',
(PID.TID 0000.0001) > PTRACERS_names(162)= 'si29',
(PID.TID 0000.0001) > PTRACERS_names(163)= 'si30',
(PID.TID 0000.0001) > PTRACERS_names(164)= 'si31',
(PID.TID 0000.0001) > PTRACERS_names(165)= 'si32',
(PID.TID 0000.0001) > PTRACERS_names(166)= 'si33',
(PID.TID 0000.0001) > PTRACERS_names(167)= 'si34',
(PID.TID 0000.0001) > PTRACERS_names(168)= 'si35',
(PID.TID 0000.0001) > PTRACERS_names(169)= 'si36',
(PID.TID 0000.0001) > PTRACERS_names(170)= 'si37',
(PID.TID 0000.0001) > PTRACERS_names(171)= 'si38',
(PID.TID 0000.0001) > PTRACERS_names(172)= 'fe01',
(PID.TID 0000.0001) > PTRACERS_names(173)= 'fe02',
(PID.TID 0000.0001) > PTRACERS_names(174)= 'fe03',
(PID.TID 0000.0001) > PTRACERS_names(175)= 'fe04',
(PID.TID 0000.0001) > PTRACERS_names(176)= 'fe05',
(PID.TID 0000.0001) > PTRACERS_names(177)= 'fe06',
(PID.TID 0000.0001) > PTRACERS_names(178)= 'fe07',
(PID.TID 0000.0001) > PTRACERS_names(179)= 'fe08',
(PID.TID 0000.0001) > PTRACERS_names(180)= 'fe09',
(PID.TID 0000.0001) > PTRACERS_names(181)= 'fe10',
(PID.TID 0000.0001) > PTRACERS_names(182)= 'fe11',
(PID.TID 0000.0001) > PTRACERS_names(183)= 'fe12',
(PID.TID 0000.0001) > PTRACERS_names(184)= 'fe13',
(PID.TID 0000.0001) > PTRACERS_names(185)= 'fe14',
(PID.TID 0000.0001) > PTRACERS_names(186)= 'fe15',
(PID.TID 0000.0001) > PTRACERS_names(187)= 'fe16',
(PID.TID 0000.0001) > PTRACERS_names(188)= 'fe17',
(PID.TID 0000.0001) > PTRACERS_names(189)= 'fe18',
(PID.TID 0000.0001) > PTRACERS_names(190)= 'fe19',
(PID.TID 0000.0001) > PTRACERS_names(191)= 'fe20',
(PID.TID 0000.0001) > PTRACERS_names(192)= 'fe21',
(PID.TID 0000.0001) > PTRACERS_names(193)= 'fe22',
(PID.TID 0000.0001) > PTRACERS_names(194)= 'fe23',
(PID.TID 0000.0001) > PTRACERS_names(195)= 'fe24',
(PID.TID 0000.0001) > PTRACERS_names(196)= 'fe25',
(PID.TID 0000.0001) > PTRACERS_names(197)= 'fe26',
(PID.TID 0000.0001) > PTRACERS_names(198)= 'fe27',
(PID.TID 0000.0001) > PTRACERS_names(199)= 'fe28',
(PID.TID 0000.0001) > PTRACERS_names(200)= 'fe29',
(PID.TID 0000.0001) > PTRACERS_names(201)= 'fe30',
(PID.TID 0000.0001) > PTRACERS_names(202)= 'fe31',
(PID.TID 0000.0001) > PTRACERS_names(203)= 'fe32',
(PID.TID 0000.0001) > PTRACERS_names(204)= 'fe33',
(PID.TID 0000.0001) > PTRACERS_names(205)= 'fe34',
(PID.TID 0000.0001) > PTRACERS_names(206)= 'fe35',
(PID.TID 0000.0001) > PTRACERS_names(207)= 'fe36',
(PID.TID 0000.0001) > PTRACERS_names(208)= 'fe37',
(PID.TID 0000.0001) > PTRACERS_names(209)= 'fe38',
(PID.TID 0000.0001) > PTRACERS_names(210)= 'Chl01',
(PID.TID 0000.0001) > PTRACERS_names(211)= 'Chl02',
(PID.TID 0000.0001) > PTRACERS_names(212)= 'Chl03',
(PID.TID 0000.0001) > PTRACERS_names(213)= 'Chl04',
(PID.TID 0000.0001) > PTRACERS_names(214)= 'Chl05',
(PID.TID 0000.0001) > PTRACERS_names(215)= 'Chl06',
(PID.TID 0000.0001) > PTRACERS_names(216)= 'Chl07',
(PID.TID 0000.0001) > PTRACERS_names(217)= 'Chl08',
(PID.TID 0000.0001) > PTRACERS_names(218)= 'Chl09',
(PID.TID 0000.0001) > PTRACERS_names(219)= 'Chl10',
(PID.TID 0000.0001) > PTRACERS_names(220)= 'Chl11',
(PID.TID 0000.0001) > PTRACERS_names(221)= 'Chl12',
(PID.TID 0000.0001) > PTRACERS_names(222)= 'Chl13',
(PID.TID 0000.0001) > PTRACERS_names(223)= 'Chl14',
(PID.TID 0000.0001) > PTRACERS_names(224)= 'Chl15',
(PID.TID 0000.0001) > PTRACERS_names(225)= 'Chl16',
(PID.TID 0000.0001) > PTRACERS_names(226)= 'Chl17',
(PID.TID 0000.0001) > PTRACERS_names(227)= 'Chl18',
(PID.TID 0000.0001) > PTRACERS_names(228)= 'Chl19',
(PID.TID 0000.0001) > PTRACERS_names(229)= 'Chl20',
(PID.TID 0000.0001) > PTRACERS_names(230)= 'Chl21',
(PID.TID 0000.0001) > PTRACERS_names(231)= 'Chl22',
(PID.TID 0000.0001) > PTRACERS_names(232)= 'Chl23',
(PID.TID 0000.0001) > PTRACERS_names(233)= 'Chl24',
(PID.TID 0000.0001) >#
(PID.TID 0000.0001) > PTRACERS_units(1)='mmol C/m^3',
(PID.TID 0000.0001) > PTRACERS_units(2)='mmol N/m^3',
(PID.TID 0000.0001) > PTRACERS_units(3)='mmol N/m^3',
(PID.TID 0000.0001) > PTRACERS_units(4)='mmol N/m^3',
(PID.TID 0000.0001) > PTRACERS_units(5)='mmol P/m^3',
(PID.TID 0000.0001) > PTRACERS_units(6)='mmol Si/m^3',
(PID.TID 0000.0001) > PTRACERS_units(7)='mmol Fe/m^3',
(PID.TID 0000.0001) > PTRACERS_units(8)='mmol C/m^3',
(PID.TID 0000.0001) > PTRACERS_units(9)='mmol N/m^3',
(PID.TID 0000.0001) > PTRACERS_units(10)='mmol P/m^3',
(PID.TID 0000.0001) > PTRACERS_units(11)='mmol Fe/m^3',
(PID.TID 0000.0001) > PTRACERS_units(12)='mmol C/m^3',
(PID.TID 0000.0001) > PTRACERS_units(13)='mmol N/m^3',
(PID.TID 0000.0001) > PTRACERS_units(14)='mmol P/m^3',
(PID.TID 0000.0001) > PTRACERS_units(15)='mmol Si/m^3',
(PID.TID 0000.0001) > PTRACERS_units(16)='mmol Fe/m^3',
(PID.TID 0000.0001) > PTRACERS_units(17)='mmol C/m^3',
(PID.TID 0000.0001) > PTRACERS_units(18)='mmol eq/m^3',
(PID.TID 0000.0001) > PTRACERS_units(19)='mmol O/m^3',
(PID.TID 0000.0001) > PTRACERS_units(20:57)=38*'mmol C/m^3',
(PID.TID 0000.0001) > PTRACERS_units(58:95)=38*'mmol N/m^3',
(PID.TID 0000.0001) > PTRACERS_units(96:133)=38*'mmol P/m^3',
(PID.TID 0000.0001) > PTRACERS_units(134:171)=38*'mmol Si/m^3',
(PID.TID 0000.0001) > PTRACERS_units(172:209)=38*'mmol Fe/m^3',
(PID.TID 0000.0001) > PTRACERS_units(210:233)=24*'mg Chl a/m^3',
(PID.TID 0000.0001) >#
(PID.TID 0000.0001) > PTRACERS_initialFile(1)='../../../input/eccov3_R8/glodap_tco2_ann-3d.bin',
(PID.TID 0000.0001) > PTRACERS_initialFile(2)='../../../input/DARWIN_ECCO_run17_R8/nh4_y2000.data',
(PID.TID 0000.0001) > PTRACERS_initialFile(3)='../../../input/DARWIN_ECCO_run17_R8/no2_y2000.data',
(PID.TID 0000.0001) > PTRACERS_initialFile(4)='../../../input/eccov3_R8/lev01_nitrate_ann-3d.bin',
(PID.TID 0000.0001) > PTRACERS_initialFile(5)='../../../input/eccov3_R8/lev01_phosphate_ann-3d.bin',
(PID.TID 0000.0001) > PTRACERS_initialFile(6)='../../../input/eccov3_R8/lev01_silicate_ann-3d.bin',
(PID.TID 0000.0001) > PTRACERS_initialFile(7)='../../../input/DARWIN_ECCO_run17_R8/fet_y2000.data',
(PID.TID 0000.0001) > PTRACERS_initialFile(8)='../../../input/DARWIN_ECCO_run17_R8/doc_y2000.data',
(PID.TID 0000.0001) > PTRACERS_initialFile(9)='../../../input/DARWIN_ECCO_run17_R8/don_y2000.data',
(PID.TID 0000.0001) > PTRACERS_initialFile(10)='../../../input/DARWIN_ECCO_run17_R8/dop_y2000.data',
(PID.TID 0000.0001) > PTRACERS_initialFile(11)='../../../input/DARWIN_ECCO_run17_R8/dofe_y2000.data',
(PID.TID 0000.0001) > PTRACERS_initialFile(12)='../../../input/DARWIN_ECCO_run17_R8/poc_y2000.data',
(PID.TID 0000.0001) > PTRACERS_initialFile(13)='../../../input/DARWIN_ECCO_run17_R8/pon_y2000.data',
(PID.TID 0000.0001) > PTRACERS_initialFile(14)='../../../input/DARWIN_ECCO_run17_R8/pop_y2000.data',
(PID.TID 0000.0001) > PTRACERS_initialFile(15)='../../../input/DARWIN_ECCO_run17_R8/posi_y2000.data',
(PID.TID 0000.0001) > PTRACERS_initialFile(16)='../../../input/DARWIN_ECCO_run17_R8/pofe_y2000.data',
(PID.TID 0000.0001) > PTRACERS_initialFile(17)='../../../input/DARWIN_ECCO_run17_R8/pic_y2000.data',
(PID.TID 0000.0001) > PTRACERS_initialFile(18)='../../../input/eccov3_R8/glodap_alk_ann-3d.bin',
(PID.TID 0000.0001) > PTRACERS_initialFile(19)='../../../input/eccov3_R8/lev01_oxygen_micromolar_ann-3d.bin',
(PID.TID 0000.0001) > PTRACERS_initialFile(20:57)=38*'../../../input/eccov3_R8/phy78_x120_lev01.bin',
(PID.TID 0000.0001) > PTRACERS_initialFile(58:61)=4*'../../../input/eccov3_R8/phy78_x16_lev01.bin',
(PID.TID 0000.0001) > PTRACERS_initialFile(62)=     '../../../input/eccov3_R8/phy78_x40_lev01.bin',
(PID.TID 0000.0001) > PTRACERS_initialFile(63:64)=2*'../../../input/eccov3_R8/phy78_x16_lev01.bin',
(PID.TID 0000.0001) > PTRACERS_initialFile(65)=     '../../../input/eccov3_R8/phy78_x40_lev01.bin',
(PID.TID 0000.0001) > PTRACERS_initialFile(66:67)=2*'../../../input/eccov3_R8/phy78_x16_lev01.bin',
(PID.TID 0000.0001) > PTRACERS_initialFile(68)=     '../../../input/eccov3_R8/phy78_x40_lev01.bin',
(PID.TID 0000.0001) > PTRACERS_initialFile(69:70)=2*'../../../input/eccov3_R8/phy78_x16_lev01.bin',
(PID.TID 0000.0001) > PTRACERS_initialFile(71)=     '../../../input/eccov3_R8/phy78_x40_lev01.bin',
(PID.TID 0000.0001) > PTRACERS_initialFile(72:73)=2*'../../../input/eccov3_R8/phy78_x16_lev01.bin',
(PID.TID 0000.0001) > PTRACERS_initialFile(74)=     '../../../input/eccov3_R8/phy78_x40_lev01.bin',
(PID.TID 0000.0001) > PTRACERS_initialFile(75:81)=7*'../../../input/eccov3_R8/phy78_x16_lev01.bin',
(PID.TID 0000.0001) > PTRACERS_initialFile(82:95)=14*'../../../input/eccov3_R8/phy78_x16_lev01.bin',
(PID.TID 0000.0001) > PTRACERS_initialFile(96:133)=38*'../../../input/eccov3_R8/phy78_lev01.bin',
(PID.TID 0000.0001) > PTRACERS_initialFile(134:139)=6*' ',
(PID.TID 0000.0001) > PTRACERS_initialFile(140)=      '../../../input/eccov3_R8/phy78_x16_lev01.bin',
(PID.TID 0000.0001) > PTRACERS_initialFile(141:142)=2*' ',
(PID.TID 0000.0001) > PTRACERS_initialFile(143)=      '../../../input/eccov3_R8/phy78_x16_lev01.bin',
(PID.TID 0000.0001) > PTRACERS_initialFile(144:145)=2*' ',
(PID.TID 0000.0001) > PTRACERS_initialFile(146)=      '../../../input/eccov3_R8/phy78_x16_lev01.bin',
(PID.TID 0000.0001) > PTRACERS_initialFile(147:148)=2*' ',
(PID.TID 0000.0001) > PTRACERS_initialFile(149)=      '../../../input/eccov3_R8/phy78_x16_lev01.bin',
(PID.TID 0000.0001) > PTRACERS_initialFile(150:151)=2*' ',
(PID.TID 0000.0001) > PTRACERS_initialFile(152)=      '../../../input/eccov3_R8/phy78_x16_lev01.bin',
(PID.TID 0000.0001) > PTRACERS_initialFile(153)=      ' ',
(PID.TID 0000.0001) > PTRACERS_initialFile(154:157)=4*'../../../input/eccov3_R8/phy78_x16_lev01.bin',
(PID.TID 0000.0001) > PTRACERS_initialFile(158:171)=14*' ',
(PID.TID 0000.0001) > PTRACERS_initialFile(172:175)=4*'../../../input/eccov3_R8/phy78_x0.001_lev01.bin',
(PID.TID 0000.0001) > PTRACERS_initialFile(176)=     '../../../input/eccov3_R8/phy78_x0.004_lev01.bin',
(PID.TID 0000.0001) > PTRACERS_initialFile(177:178)=2*'../../../input/eccov3_R8/phy78_x0.001_lev01.bin',
(PID.TID 0000.0001) > PTRACERS_initialFile(179)=     '../../../input/eccov3_R8/phy78_x0.004_lev01.bin',
(PID.TID 0000.0001) > PTRACERS_initialFile(180:181)=2*'../../../input/eccov3_R8/phy78_x0.001_lev01.bin',
(PID.TID 0000.0001) > PTRACERS_initialFile(182)=     '../../../input/eccov3_R8/phy78_x0.004_lev01.bin',
(PID.TID 0000.0001) > PTRACERS_initialFile(183:184)=2*'../../../input/eccov3_R8/phy78_x0.001_lev01.bin',
(PID.TID 0000.0001) > PTRACERS_initialFile(185)=     '../../../input/eccov3_R8/phy78_x0.004_lev01.bin',
(PID.TID 0000.0001) > PTRACERS_initialFile(186:187)=2*'../../../input/eccov3_R8/phy78_x0.001_lev01.bin',
(PID.TID 0000.0001) > PTRACERS_initialFile(188)=     '../../../input/eccov3_R8/phy78_x0.004_lev01.bin',
(PID.TID 0000.0001) > PTRACERS_initialFile(189:195)=7*'../../../input/eccov3_R8/phy78_x0.001_lev01.bin',
(PID.TID 0000.0001) > PTRACERS_initialFile(196:209)=14*'../../../input/eccov3_R8/phy78_x0.001_lev01.bin',
(PID.TID 0000.0001) > PTRACERS_initialFile(210:233)=24*' ',
(PID.TID 0000.0001) > /
(PID.TID 0000.0001) 
(PID.TID 0000.0001)  PTRACERS_READPARMS: finished reading data.ptracers
(PID.TID 0000.0001)  GCHEM_READPARMS: opening data.gchem
(PID.TID 0000.0001)  OPEN_COPY_DATA_FILE: opening file data.gchem
(PID.TID 0000.0001) // =======================================================
(PID.TID 0000.0001) // Removing comments from "data.gchem"
(PID.TID 0000.0001) // =======================================================
(PID.TID 0000.0001)    1  &GCHEM_PARM01
(PID.TID 0000.0001)    2   useGUD=.TRUE.,
(PID.TID 0000.0001)    3   nsubtime=1,
(PID.TID 0000.0001)    4  /
(PID.TID 0000.0001) // =======================================================
(PID.TID 0000.0001) // Parameter file "data.gchem"
(PID.TID 0000.0001) // =======================================================
(PID.TID 0000.0001) > &GCHEM_PARM01
(PID.TID 0000.0001) >  useGUD=.TRUE.,
(PID.TID 0000.0001) >  nsubtime=1,
(PID.TID 0000.0001) > /
(PID.TID 0000.0001) 
(PID.TID 0000.0001)  GCHEM_READPARMS: finished reading data.gchem
(PID.TID 0000.0001)  GUD_READPARMS: opening data.gud
(PID.TID 0000.0001)  OPEN_COPY_DATA_FILE: opening file data.gud
(PID.TID 0000.0001) // =======================================================
(PID.TID 0000.0001) // Removing comments from "data.gud"
(PID.TID 0000.0001) // =======================================================
(PID.TID 0000.0001)    1  &GUD_FORCING_PARAMS
(PID.TID 0000.0001)    2  gud_chlInitBalanced= T,
(PID.TID 0000.0001)    3  /
(PID.TID 0000.0001)    4  &GUD_EXF_PARAMS
(PID.TID 0000.0001)    5  ironFile='/home/stephdut/Input/input_ecco/mahowald2009_solubile_current_smooth_oce_mth-2d.bin',
(PID.TID 0000.0001)    6  ironPeriod= -12.,
(PID.TID 0000.0001)    7  gud_inscal_iron= 1000.,
(PID.TID 0000.0001)    8  PARFile='/home/stephdut/Input/input_ecco/ecco_oasim_total_below_oneband_einm2d.bin',
(PID.TID 0000.0001)    9  PARPeriod= -12.,
(PID.TID 0000.0001)   10  gud_inscal_PAR= 11.574074074074,
(PID.TID 0000.0001)   11  windFile='../../../input/eccov3/tren_speed_mth-2d.bin',
(PID.TID 0000.0001)   12  windPeriod= -12.,
(PID.TID 0000.0001)   13  icefile = '../../../input/eccov3/SIarea.bin',
(PID.TID 0000.0001)   14  icestartdate1 = 19990101,
(PID.TID 0000.0001)   15  icestartdate2 = 120000,
(PID.TID 0000.0001)   16  iceperiod     = 86400.0,
(PID.TID 0000.0001)   17  /
(PID.TID 0000.0001)   18  &GUD_PARAMS
(PID.TID 0000.0001)   19  idebug=271,
(PID.TID 0000.0001)   20  jdebug=63,
(PID.TID 0000.0001)   21  gud_allometric= T,
(PID.TID 0000.0001)   22  gud_sort_biovol= T,
(PID.TID 0000.0001)   23  gud_seed= 56,
(PID.TID 0000.0001)   24  gud_read_phos= F,
(PID.TID 0000.0001)   25  tempCoeffArr= 0.8,
(PID.TID 0000.0001)   26  PARmin= 0.1,
(PID.TID 0000.0001)   27  alpfe= 1.0,
(PID.TID 0000.0001)   28  freefemax = .1E-3,
(PID.TID 0000.0001)   29  depthfesed= 7000.,
(PID.TID 0000.0001)   30  scav_rat= 1.73611111111111111111E-7,
(PID.TID 0000.0001)   31  kdoc=  3.8580246913580247E-7,  ! 1/30day
(PID.TID 0000.0001)   32  kdop=  3.8580246913580247E-7,  ! 1/30day
(PID.TID 0000.0001)   33  kdon=  3.8580246913580247E-7,  ! 1/30day
(PID.TID 0000.0001)   34  kdofe= 3.8580246913580247E-7,  ! 1/30day
(PID.TID 0000.0001)   35  kPOC=  3.8580246913580247E-7,  ! 1/30day
(PID.TID 0000.0001)   36  kPOP=  3.8580246913580247E-7,  ! 1/30day
(PID.TID 0000.0001)   37  kPON=  3.8580246913580247E-7,  ! 1/30day
(PID.TID 0000.0001)   38  kPOFe= 3.8580246913580247E-7,  ! 1/30day
(PID.TID 0000.0001)   39  kPOSi= 7.7160493827160493E-8,  ! 1/150day
(PID.TID 0000.0001)   40  phygrazmin= 120E-10,
(PID.TID 0000.0001)   41  gud_atmos_pCO2= 278E-6,
(PID.TID 0000.0001)   42  /
(PID.TID 0000.0001)   43  &GUD_RADTRANS_PARAMS
(PID.TID 0000.0001)   44  /
(PID.TID 0000.0001)   45  &GUD_RANDOM_PARAMS
(PID.TID 0000.0001)   46  /
(PID.TID 0000.0001)   47  &GUD_ALLOMETRIC_PARAMS
(PID.TID 0000.0001)   48  grpsz(:)=       9, 0, 2, 1, 5, 6, 1,14,
(PID.TID 0000.0001)   49  grp_photo(:)=   1, 1, 1, 1, 1, 1, 1, 0,
(PID.TID 0000.0001)   50  grp_pred(:)=    0, 0, 0, 0, 0, 0, 0, 1,
(PID.TID 0000.0001)   51  grp_prey(:)=    1, 1, 1, 1, 1, 1, 1, 0,
(PID.TID 0000.0001)   52  grp_DIACOC(:)=  1, 0, 0, 0, 0, 2, 0, 0,
(PID.TID 0000.0001)   53  grp_DIAZO(:)=   0, 0, 0, 0, 1, 0, 0, 0,
(PID.TID 0000.0001)   54  grp_NSOURCE(:)= 3, 3, 3, 3, 0, 3, 3, 0,
(PID.TID 0000.0001)   55
(PID.TID 0000.0001)   56  grp_mqyield(:)= 7*5E-5,
(PID.TID 0000.0001)   57  grp_chl2cmax(:)= 7*.3,
(PID.TID 0000.0001)   58  grp_acclimtimescl(:)= 7*5.7870370370370370E-6,
(PID.TID 0000.0001)   59  grp_noMortTempFunc(:)=  8*0,
(PID.TID 0000.0001)   60  grp_noMort2TempFunc(:)= 8*0,
(PID.TID 0000.0001)   61  biovol0(1)=  41.54320512418612,   ! D
(PID.TID 0000.0001)   62  biovol0(2)=  0.,
(PID.TID 0000.0001)   63  biovol0(3)=  1.2008810730146715,  ! s
(PID.TID 0000.0001)   64  biovol0(4)=  0.11310973893337056, ! P
(PID.TID 0000.0001)   65  biovol0(5)=  12.749700999437144,  ! T
(PID.TID 0000.0001)   66  biovol0(6)=  12.749700999437144,  ! C
(PID.TID 0000.0001)   67  biovol0(7)=  0.3685530418524794,  ! S
(PID.TID 0000.0001)   68  biovol0(8)=  1.2008810730146715,  ! Z
(PID.TID 0000.0001)   69  biovolfac(:)= 8*3.2583670100200877,
(PID.TID 0000.0001)   70  a_biosink(:)= 7*6.951416635391563E-7, 0.,  ! .05*dm**.85
(PID.TID 0000.0001)   71  b_biosink(:)= 7*.2833333333333333, 0.,
(PID.TID 0000.0001)   72  a_vmax_DIC(1)= 8.680555555555556E-5,   ! 7.5/day
(PID.TID 0000.0001)   73  a_vmax_DIC(2)= 2.3148148148148147E-5,  ! 2.0/day
(PID.TID 0000.0001)   74  a_vmax_DIC(3)= 6.944444444444444E-6,   ! 0.6/day
(PID.TID 0000.0001)   75  a_vmax_DIC(4)= 6.944444444444444E-6,   ! 0.6/day
(PID.TID 0000.0001)   76  a_vmax_DIC(5)= 1.0416666666666666E-5,  ! 0.9/day
(PID.TID 0000.0001)   77  a_vmax_DIC(6)= 3.472222222222222E-5,   ! 3.0/day
(PID.TID 0000.0001)   78  a_vmax_DIC(7)= 6.944444444444444E-6,   ! 0.6/day
(PID.TID 0000.0001)   79  b_vmax_DIC(:)= -0.15, -0.15, 0.07, 0.07, -0.15, -0.15, 0.07,
(PID.TID 0000.0001)   80  gud_effective_ksat= T,
(PID.TID 0000.0001)   81  grp_ExportFrac(:)= .4, .4, .1, .1, .4, .4, .1, .6,
(PID.TID 0000.0001)   82  grp_ExportFracGraz(1:7)= .8,
(PID.TID 0000.0001)   83  grp_R_ChlC(8)= 0.,
(PID.TID 0000.0001)   84  a_graz(8)= 2.3148148148148147e-05,  ! 2/day
(PID.TID 0000.0001)   85  b_graz(8)= -.16,
(PID.TID 0000.0001)   86  grp_mort(:)= 7*1.6534391534391533e-06, 2.3148148148148148e-07,  ! 1/7days, 1/50days
(PID.TID 0000.0001)   87  grp_mort2(:)= 7*0., 9.259259259259258e-07,  ! 16*.6/120/day
(PID.TID 0000.0001)   88  grp_tempcoeff2= 7*.0003,
(PID.TID 0000.0001)   89  grp_R_PC(:)= 8*0.008333333333333333,
(PID.TID 0000.0001)   90  grp_R_FeC(:)= 4*0.008333333333333333E-3, 0.03333333333333333E-3, 3*0.008333333333333333E-3,
(PID.TID 0000.0001)   91  grp_R_NC(:)= 4*0.13333333333333333, 0.3333333333333333, 3*0.13333333333333333,
(PID.TID 0000.0001)   92  grp_R_SiC(:)= 0.13333333333333333, 7*0.,
(PID.TID 0000.0001)   93  grp_R_PICPOC(:)= 5*0., .8, 2*0.,
(PID.TID 0000.0001)   94  a_kg(8)= 6.,
(PID.TID 0000.0001)   95  b_kg(8)= 0.,
(PID.TID 0000.0001)   96
(PID.TID 0000.0001)   97  grp_ass_eff(:)= 7*0.5,
(PID.TID 0000.0001)   98  /
(PID.TID 0000.0001) // =======================================================
(PID.TID 0000.0001) // Parameter file "data.gud"
(PID.TID 0000.0001) // =======================================================
(PID.TID 0000.0001) >########################
(PID.TID 0000.0001) > &GUD_FORCING_PARAMS
(PID.TID 0000.0001) > gud_chlInitBalanced= T,
(PID.TID 0000.0001) > /
(PID.TID 0000.0001) >########################
(PID.TID 0000.0001) > &GUD_EXF_PARAMS
(PID.TID 0000.0001) > ironFile='/home/stephdut/Input/input_ecco/mahowald2009_solubile_current_smooth_oce_mth-2d.bin',
(PID.TID 0000.0001) > ironPeriod= -12.,
(PID.TID 0000.0001) > gud_inscal_iron= 1000.,
(PID.TID 0000.0001) > PARFile='/home/stephdut/Input/input_ecco/ecco_oasim_total_below_oneband_einm2d.bin',
(PID.TID 0000.0001) > PARPeriod= -12.,
(PID.TID 0000.0001) > gud_inscal_PAR= 11.574074074074,
(PID.TID 0000.0001) > windFile='../../../input/eccov3/tren_speed_mth-2d.bin',
(PID.TID 0000.0001) > windPeriod= -12.,
(PID.TID 0000.0001) > icefile = '../../../input/eccov3/SIarea.bin',
(PID.TID 0000.0001) > icestartdate1 = 19990101,
(PID.TID 0000.0001) > icestartdate2 = 120000,
(PID.TID 0000.0001) > iceperiod     = 86400.0,
(PID.TID 0000.0001) > /
(PID.TID 0000.0001) >########################
(PID.TID 0000.0001) > &GUD_PARAMS
(PID.TID 0000.0001) > idebug=271,
(PID.TID 0000.0001) > jdebug=63,
(PID.TID 0000.0001) > gud_allometric= T,
(PID.TID 0000.0001) > gud_sort_biovol= T,
(PID.TID 0000.0001) > gud_seed= 56,
(PID.TID 0000.0001) > gud_read_phos= F,
(PID.TID 0000.0001) > tempCoeffArr= 0.8,
(PID.TID 0000.0001) > PARmin= 0.1,
(PID.TID 0000.0001) > alpfe= 1.0,
(PID.TID 0000.0001) > freefemax = .1E-3,
(PID.TID 0000.0001) > depthfesed= 7000.,
(PID.TID 0000.0001) > scav_rat= 1.73611111111111111111E-7,
(PID.TID 0000.0001) > kdoc=  3.8580246913580247E-7,  ! 1/30day
(PID.TID 0000.0001) > kdop=  3.8580246913580247E-7,  ! 1/30day
(PID.TID 0000.0001) > kdon=  3.8580246913580247E-7,  ! 1/30day
(PID.TID 0000.0001) > kdofe= 3.8580246913580247E-7,  ! 1/30day
(PID.TID 0000.0001) > kPOC=  3.8580246913580247E-7,  ! 1/30day
(PID.TID 0000.0001) > kPOP=  3.8580246913580247E-7,  ! 1/30day
(PID.TID 0000.0001) > kPON=  3.8580246913580247E-7,  ! 1/30day
(PID.TID 0000.0001) > kPOFe= 3.8580246913580247E-7,  ! 1/30day
(PID.TID 0000.0001) > kPOSi= 7.7160493827160493E-8,  ! 1/150day
(PID.TID 0000.0001) > phygrazmin= 120E-10,
(PID.TID 0000.0001) > gud_atmos_pCO2= 278E-6,
(PID.TID 0000.0001) > /
(PID.TID 0000.0001) >########################
(PID.TID 0000.0001) > &GUD_RADTRANS_PARAMS
(PID.TID 0000.0001) > /
(PID.TID 0000.0001) >########################
(PID.TID 0000.0001) > &GUD_RANDOM_PARAMS
(PID.TID 0000.0001) > /
(PID.TID 0000.0001) >########################
(PID.TID 0000.0001) > &GUD_ALLOMETRIC_PARAMS
(PID.TID 0000.0001) >#                1  2  3  4  5  6  7  8
(PID.TID 0000.0001) >#                D  l  s  P  T  C  S  Z
(PID.TID 0000.0001) > grpsz(:)=       9, 0, 2, 1, 5, 6, 1,14,
(PID.TID 0000.0001) > grp_photo(:)=   1, 1, 1, 1, 1, 1, 1, 0,
(PID.TID 0000.0001) > grp_pred(:)=    0, 0, 0, 0, 0, 0, 0, 1,
(PID.TID 0000.0001) > grp_prey(:)=    1, 1, 1, 1, 1, 1, 1, 0,
(PID.TID 0000.0001) > grp_DIACOC(:)=  1, 0, 0, 0, 0, 2, 0, 0,
(PID.TID 0000.0001) > grp_DIAZO(:)=   0, 0, 0, 0, 1, 0, 0, 0,
(PID.TID 0000.0001) > grp_NSOURCE(:)= 3, 3, 3, 3, 0, 3, 3, 0,
(PID.TID 0000.0001) >
(PID.TID 0000.0001) > grp_mqyield(:)= 7*5E-5,
(PID.TID 0000.0001) > grp_chl2cmax(:)= 7*.3,
(PID.TID 0000.0001) > grp_acclimtimescl(:)= 7*5.7870370370370370E-6,
(PID.TID 0000.0001) > grp_noMortTempFunc(:)=  8*0,
(PID.TID 0000.0001) > grp_noMort2TempFunc(:)= 8*0,
(PID.TID 0000.0001) > biovol0(1)=  41.54320512418612,   ! D
(PID.TID 0000.0001) > biovol0(2)=  0.,
(PID.TID 0000.0001) > biovol0(3)=  1.2008810730146715,  ! s
(PID.TID 0000.0001) > biovol0(4)=  0.11310973893337056, ! P
(PID.TID 0000.0001) > biovol0(5)=  12.749700999437144,  ! T
(PID.TID 0000.0001) > biovol0(6)=  12.749700999437144,  ! C
(PID.TID 0000.0001) > biovol0(7)=  0.3685530418524794,  ! S
(PID.TID 0000.0001) > biovol0(8)=  1.2008810730146715,  ! Z
(PID.TID 0000.0001) > biovolfac(:)= 8*3.2583670100200877,
(PID.TID 0000.0001) > a_biosink(:)= 7*6.951416635391563E-7, 0.,  ! .05*dm**.85
(PID.TID 0000.0001) > b_biosink(:)= 7*.2833333333333333, 0.,
(PID.TID 0000.0001) > a_vmax_DIC(1)= 8.680555555555556E-5,   ! 7.5/day
(PID.TID 0000.0001) > a_vmax_DIC(2)= 2.3148148148148147E-5,  ! 2.0/day
(PID.TID 0000.0001) > a_vmax_DIC(3)= 6.944444444444444E-6,   ! 0.6/day
(PID.TID 0000.0001) > a_vmax_DIC(4)= 6.944444444444444E-6,   ! 0.6/day
(PID.TID 0000.0001) > a_vmax_DIC(5)= 1.0416666666666666E-5,  ! 0.9/day
(PID.TID 0000.0001) > a_vmax_DIC(6)= 3.472222222222222E-5,   ! 3.0/day
[...]
(PID.TID 0000.0001) %MON trcstat_ptracer2v_del2       =   3.1490624362887329E-06
(PID.TID 0000.0001) %MON trcstat_ptracer2w_max        =   2.1149521768076520E-02
(PID.TID 0000.0001) %MON trcstat_ptracer2w_min        =   6.1722904414422712E-09
(PID.TID 0000.0001) %MON trcstat_ptracer2w_mean       =   1.6871375871610720E-05
(PID.TID 0000.0001) %MON trcstat_ptracer2w_sd         =   1.7085104483908952E-04
(PID.TID 0000.0001) %MON trcstat_ptracer2w_del2       =   2.6202371922970131E-07
(PID.TID 0000.0001) %MON trcstat_ptracer2x_max        =   2.1183985551308526E-01
(PID.TID 0000.0001) %MON trcstat_ptracer2x_min        =   6.4578737518060912E-08
(PID.TID 0000.0001) %MON trcstat_ptracer2x_mean       =   2.2459909126061614E-04
(PID.TID 0000.0001) %MON trcstat_ptracer2x_sd         =   2.0599064417150840E-03
(PID.TID 0000.0001) %MON trcstat_ptracer2x_del2       =   2.9350402664627383E-06
(PID.TID 0000.0001) %MON trcstat_ptracer2y_max        =   2.1199040485485326E-01
(PID.TID 0000.0001) %MON trcstat_ptracer2y_min        =   7.2094913052633198E-08
(PID.TID 0000.0001) %MON trcstat_ptracer2y_mean       =   2.5435410940335149E-04
(PID.TID 0000.0001) %MON trcstat_ptracer2y_sd         =   2.2412549133220541E-03
(PID.TID 0000.0001) %MON trcstat_ptracer2y_del2       =   3.1090287363829096E-06
(PID.TID 0000.0001) %MON trcstat_ptracer2z_max        =   2.1188404672177480E-01
(PID.TID 0000.0001) %MON trcstat_ptracer2z_min        =   7.0867066122069091E-08
(PID.TID 0000.0001) %MON trcstat_ptracer2z_mean       =   2.1680347936353962E-04
(PID.TID 0000.0001) %MON trcstat_ptracer2z_sd         =   2.0113930284060906E-03
(PID.TID 0000.0001) %MON trcstat_ptracer2z_del2       =   2.8883773387532316E-06
(PID.TID 0000.0001) %MON trcstat_ptracer2A_max        =   2.1213266349690874E-01
(PID.TID 0000.0001) %MON trcstat_ptracer2A_min        =   8.1318223858165437E-08
(PID.TID 0000.0001) %MON trcstat_ptracer2A_mean       =   2.4775651718063108E-04
(PID.TID 0000.0001) %MON trcstat_ptracer2A_sd         =   2.2006939383106407E-03
(PID.TID 0000.0001) %MON trcstat_ptracer2A_del2       =   3.0678009295905463E-06
(PID.TID 0000.0001) %MON trcstat_ptracer2B_max        =   2.1201182045078837E-01
(PID.TID 0000.0001) %MON trcstat_ptracer2B_min        =   9.4262317049216544E-08
(PID.TID 0000.0001) %MON trcstat_ptracer2B_mean       =   2.4079518466069624E-04
(PID.TID 0000.0001) %MON trcstat_ptracer2B_sd         =   2.1565269294897423E-03
(PID.TID 0000.0001) %MON trcstat_ptracer2B_del2       =   3.0195801775568041E-06
(PID.TID 0000.0001) %MON trcstat_ptracer2C_max        =   2.1179931838603686E-01
(PID.TID 0000.0001) %MON trcstat_ptracer2C_min        =   1.1246267161740388E-07
(PID.TID 0000.0001) %MON trcstat_ptracer2C_mean       =   2.3353206747047018E-04
(PID.TID 0000.0001) %MON trcstat_ptracer2C_sd         =   2.1097287747008056E-03
(PID.TID 0000.0001) %MON trcstat_ptracer2C_del2       =   2.9674888233798212E-06
(PID.TID 0000.0001) %MON trcstat_ptracer2D_max        =   2.1146569373673990E-01
(PID.TID 0000.0001) %MON trcstat_ptracer2D_min        =   1.4122900002223988E-07
(PID.TID 0000.0001) %MON trcstat_ptracer2D_mean       =   2.2599750199298545E-04
(PID.TID 0000.0001) %MON trcstat_ptracer2D_sd         =   2.0602199512003336E-03
(PID.TID 0000.0001) %MON trcstat_ptracer2D_del2       =   2.9111466638314221E-06
(PID.TID 0000.0001) // =======================================================
(PID.TID 0000.0001) // End MONITOR ptracers field statistics
(PID.TID 0000.0001) // =======================================================
 Compute Stats, Diag. #   3209  PP        vol(   0 ): 1.326E+18  Parms: SM P    MR      
 Compute Stats, Diag. #   3210  Nfix      vol(   0 ): 1.326E+18  Parms: SM P    MR      
 Compute Stats, Diag. #   3211  Denit     vol(   0 ): 1.326E+18  Parms: SM P    MR      
(PID.TID 0000.0001) DIAGSTATS_CLOSE_IO: close file: statsPP.0000000000.txt , unit=     9
(PID.TID 0000.0001) DIAGSTATS_CLOSE_IO: close file: statsNfix.0000000000.txt , unit=    10
(PID.TID 0000.0001) DIAGSTATS_CLOSE_IO: close file: statsDenit.0000000000.txt , unit=    16
 prec           1          64
(PID.TID 0000.0001) %CHECKPOINT         4 ckptA
(PID.TID 0000.0001)   Seconds in section "ALL                    [THE_MODEL_MAIN]":
(PID.TID 0000.0001)           User time:   233.00999999999999
(PID.TID 0000.0001)         System time:   117.89000000000000
(PID.TID 0000.0001)     Wall clock time:   357.87771606445312
(PID.TID 0000.0001)          No. starts:           1
(PID.TID 0000.0001)           No. stops:           1
(PID.TID 0000.0001)   Seconds in section "INITIALISE_FIXED       [THE_MODEL_MAIN]":
(PID.TID 0000.0001)           User time:   8.0199999999999996
(PID.TID 0000.0001)         System time:  0.25000000000000000
(PID.TID 0000.0001)     Wall clock time:   8.5637500286102295
(PID.TID 0000.0001)          No. starts:           1
(PID.TID 0000.0001)           No. stops:           1
(PID.TID 0000.0001)   Seconds in section "THE_MAIN_LOOP          [THE_MODEL_MAIN]":
(PID.TID 0000.0001)           User time:   224.98999999999998
(PID.TID 0000.0001)         System time:   117.64000000000000
(PID.TID 0000.0001)     Wall clock time:   349.31262707710266
(PID.TID 0000.0001)          No. starts:           1
(PID.TID 0000.0001)           No. stops:           1
(PID.TID 0000.0001)   Seconds in section "INITIALISE_VARIA    [THE_MAIN_LOOP]":
(PID.TID 0000.0001)           User time:   117.23000000000000
(PID.TID 0000.0001)         System time:   112.21000000000001
(PID.TID 0000.0001)     Wall clock time:   230.06754112243652
(PID.TID 0000.0001)          No. starts:           1
(PID.TID 0000.0001)           No. stops:           1
(PID.TID 0000.0001)   Seconds in section "MAIN LOOP           [THE_MAIN_LOOP]":
(PID.TID 0000.0001)           User time:   107.75999999999999
(PID.TID 0000.0001)         System time:   5.4299999999999926
(PID.TID 0000.0001)     Wall clock time:   119.24505281448364
(PID.TID 0000.0001)          No. starts:           1
(PID.TID 0000.0001)           No. stops:           1
(PID.TID 0000.0001)   Seconds in section "MAIN_DO_LOOP        [THE_MAIN_LOOP]":
(PID.TID 0000.0001)           User time:   107.75999999999996
(PID.TID 0000.0001)         System time:   5.4299999999999926
(PID.TID 0000.0001)     Wall clock time:   119.24500179290771
(PID.TID 0000.0001)          No. starts:           4
(PID.TID 0000.0001)           No. stops:           4
(PID.TID 0000.0001)   Seconds in section "FORWARD_STEP        [MAIN_DO_LOOP]":
(PID.TID 0000.0001)           User time:   107.75999999999996
(PID.TID 0000.0001)         System time:   5.4299999999999926
(PID.TID 0000.0001)     Wall clock time:   119.24492073059082
(PID.TID 0000.0001)          No. starts:           4
(PID.TID 0000.0001)           No. stops:           4
(PID.TID 0000.0001)   Seconds in section "DO_STATEVARS_DIAGS  [FORWARD_STEP]":
(PID.TID 0000.0001)           User time:  0.41999999999995907
(PID.TID 0000.0001)         System time:   0.0000000000000000
(PID.TID 0000.0001)     Wall clock time:  0.42747282981872559
(PID.TID 0000.0001)          No. starts:           8
(PID.TID 0000.0001)           No. stops:           8
(PID.TID 0000.0001)   Seconds in section "LOAD_FIELDS_DRIVER  [FORWARD_STEP]":
(PID.TID 0000.0001)           User time:  0.10000000000002274
(PID.TID 0000.0001)         System time:   0.0000000000000000
(PID.TID 0000.0001)     Wall clock time:  0.10304403305053711
(PID.TID 0000.0001)          No. starts:           4
(PID.TID 0000.0001)           No. stops:           4
(PID.TID 0000.0001)   Seconds in section "EXF_GETFORCING     [LOAD_FLDS_DRIVER]":
(PID.TID 0000.0001)           User time:   6.0000000000030695E-002
(PID.TID 0000.0001)         System time:   0.0000000000000000
(PID.TID 0000.0001)     Wall clock time:   6.3485860824584961E-002
(PID.TID 0000.0001)          No. starts:           4
(PID.TID 0000.0001)           No. stops:           4
(PID.TID 0000.0001)   Seconds in section "EXTERNAL_FLDS_LOAD [LOAD_FLDS_DRIVER]":
(PID.TID 0000.0001)           User time:   0.0000000000000000
(PID.TID 0000.0001)         System time:   0.0000000000000000
(PID.TID 0000.0001)     Wall clock time:   9.5081329345703125E-004
(PID.TID 0000.0001)          No. starts:           4
(PID.TID 0000.0001)           No. stops:           4
(PID.TID 0000.0001)   Seconds in section "OFFLINE_FLDS_LOAD  [LOAD_FLDS_DRIVER]":
(PID.TID 0000.0001)           User time:   4.0000000000020464E-002
(PID.TID 0000.0001)         System time:   0.0000000000000000
(PID.TID 0000.0001)     Wall clock time:   3.7573099136352539E-002
(PID.TID 0000.0001)          No. starts:           4
(PID.TID 0000.0001)           No. stops:           4
(PID.TID 0000.0001)   Seconds in section "DO_ATMOSPHERIC_PHYS [FORWARD_STEP]":
(PID.TID 0000.0001)           User time:   0.0000000000000000
(PID.TID 0000.0001)         System time:   0.0000000000000000
(PID.TID 0000.0001)     Wall clock time:   4.1961669921875000E-005
(PID.TID 0000.0001)          No. starts:           4
(PID.TID 0000.0001)           No. stops:           4
(PID.TID 0000.0001)   Seconds in section "DO_OCEANIC_PHYS     [FORWARD_STEP]":
(PID.TID 0000.0001)           User time:   3.9999999999992042E-002
(PID.TID 0000.0001)         System time:   0.0000000000000000
(PID.TID 0000.0001)     Wall clock time:   2.6692867279052734E-002
(PID.TID 0000.0001)          No. starts:           4
(PID.TID 0000.0001)           No. stops:           4
(PID.TID 0000.0001)   Seconds in section "GCHEM_CALC_TENDENCY [FORWARD_STEP]":
(PID.TID 0000.0001)           User time:   0.0000000000000000
(PID.TID 0000.0001)         System time:   0.0000000000000000
(PID.TID 0000.0001)     Wall clock time:   4.1007995605468750E-005
(PID.TID 0000.0001)          No. starts:           4
(PID.TID 0000.0001)           No. stops:           4
(PID.TID 0000.0001)   Seconds in section "THERMODYNAMICS      [FORWARD_STEP]":
(PID.TID 0000.0001)           User time:   60.949999999999989
(PID.TID 0000.0001)         System time:   2.2599999999999909
(PID.TID 0000.0001)     Wall clock time:   63.537086248397827
(PID.TID 0000.0001)          No. starts:           4
(PID.TID 0000.0001)           No. stops:           4
(PID.TID 0000.0001)   Seconds in section "TRC_CORRECTION_STEP [FORWARD_STEP]":
(PID.TID 0000.0001)           User time:  0.50000000000002842
(PID.TID 0000.0001)         System time:   0.0000000000000000
(PID.TID 0000.0001)     Wall clock time:  0.49896407127380371
(PID.TID 0000.0001)          No. starts:           4
(PID.TID 0000.0001)           No. stops:           4
(PID.TID 0000.0001)   Seconds in section "GCHEM_FORCING_SEP  [FORWARD_STEP]":
(PID.TID 0000.0001)           User time:   20.919999999999987
(PID.TID 0000.0001)         System time:   2.0000000000010232E-002
(PID.TID 0000.0001)     Wall clock time:   21.005888938903809
(PID.TID 0000.0001)          No. starts:           4
(PID.TID 0000.0001)           No. stops:           4
(PID.TID 0000.0001)   Seconds in section "GCHEM_DIAGNOSTICS [GCHEM_FORCING_SEP]":
(PID.TID 0000.0001)           User time:   0.0000000000000000
(PID.TID 0000.0001)         System time:   0.0000000000000000
(PID.TID 0000.0001)     Wall clock time:   4.3778419494628906E-003
(PID.TID 0000.0001)          No. starts:           4
(PID.TID 0000.0001)           No. stops:           4
(PID.TID 0000.0001)   Seconds in section "GCHEM_OFFLINE [GCHEM_FORCING_SEP]":
(PID.TID 0000.0001)           User time:   0.0000000000000000
(PID.TID 0000.0001)         System time:   0.0000000000000000
(PID.TID 0000.0001)     Wall clock time:   2.3221969604492188E-004
(PID.TID 0000.0001)          No. starts:           4
(PID.TID 0000.0001)           No. stops:           4
(PID.TID 0000.0001)   Seconds in section "GUD_CONS [GCHEM_FORCING_SEP]":
(PID.TID 0000.0001)           User time:   13.020000000000010
(PID.TID 0000.0001)         System time:   1.0000000000005116E-002
(PID.TID 0000.0001)     Wall clock time:   13.085355758666992
(PID.TID 0000.0001)          No. starts:           8
(PID.TID 0000.0001)           No. stops:           8
(PID.TID 0000.0001)   Seconds in section "GCHEM_SURFMEAN [GCHEM_FORCING_SEP]":
(PID.TID 0000.0001)           User time:   0.0000000000000000
(PID.TID 0000.0001)         System time:   0.0000000000000000
(PID.TID 0000.0001)     Wall clock time:   6.6900253295898438E-004
(PID.TID 0000.0001)          No. starts:           4
(PID.TID 0000.0001)           No. stops:           4
(PID.TID 0000.0001)   Seconds in section "GUD_FORCING [GCHEM_FORCING_SEP]":
(PID.TID 0000.0001)           User time:   7.8999999999999773
(PID.TID 0000.0001)         System time:   1.0000000000005116E-002
(PID.TID 0000.0001)     Wall clock time:   7.9149637222290039
(PID.TID 0000.0001)          No. starts:           4
(PID.TID 0000.0001)           No. stops:           4
(PID.TID 0000.0001)   Seconds in section "GUD_LIGHT [GUD_FORCING]":
(PID.TID 0000.0001)           User time:   3.9999999999963620E-002
(PID.TID 0000.0001)         System time:   0.0000000000000000
(PID.TID 0000.0001)     Wall clock time:   3.1801223754882812E-002
(PID.TID 0000.0001)          No. starts:           4
(PID.TID 0000.0001)           No. stops:           4
(PID.TID 0000.0001)   Seconds in section "GUD_SURFFORCING [GUD_FORCING]":
(PID.TID 0000.0001)           User time:  0.25000000000000000
(PID.TID 0000.0001)         System time:   0.0000000000000000
(PID.TID 0000.0001)     Wall clock time:  0.26833891868591309
(PID.TID 0000.0001)          No. starts:           4
(PID.TID 0000.0001)           No. stops:           4
(PID.TID 0000.0001)   Seconds in section "GUD_FE_CHEM [GUD_FORCING]":
(PID.TID 0000.0001)           User time:   4.0000000000020464E-002
(PID.TID 0000.0001)         System time:   0.0000000000000000
(PID.TID 0000.0001)     Wall clock time:   3.3615589141845703E-002
(PID.TID 0000.0001)          No. starts:           8
(PID.TID 0000.0001)           No. stops:           8
(PID.TID 0000.0001)   Seconds in section "GUD_FE_DUST [GUD_FORCING]":
(PID.TID 0000.0001)           User time:   0.0000000000000000
(PID.TID 0000.0001)         System time:   0.0000000000000000
(PID.TID 0000.0001)     Wall clock time:   1.8882751464843750E-004
(PID.TID 0000.0001)          No. starts:           4
(PID.TID 0000.0001)           No. stops:           4
(PID.TID 0000.0001)   Seconds in section "GUD_FE_SCAV [GUD_FORCING]":
(PID.TID 0000.0001)           User time:   0.0000000000000000
(PID.TID 0000.0001)         System time:   0.0000000000000000
(PID.TID 0000.0001)     Wall clock time:   1.7088174819946289E-002
(PID.TID 0000.0001)          No. starts:           4
(PID.TID 0000.0001)           No. stops:           4
(PID.TID 0000.0001)   Seconds in section "GUD_FE_SED [GUD_FORCING]":
(PID.TID 0000.0001)           User time:   0.0000000000000000
(PID.TID 0000.0001)         System time:   0.0000000000000000
(PID.TID 0000.0001)     Wall clock time:   1.7797946929931641E-003
(PID.TID 0000.0001)          No. starts:           4
(PID.TID 0000.0001)           No. stops:           4
(PID.TID 0000.0001)   Seconds in section "GUD_MODEL [GUD_FORCING]":
(PID.TID 0000.0001)           User time:   4.9699999999999704
(PID.TID 0000.0001)         System time:   1.0000000000005116E-002
(PID.TID 0000.0001)     Wall clock time:   4.9737133979797363
(PID.TID 0000.0001)          No. starts:           4
(PID.TID 0000.0001)           No. stops:           4
(PID.TID 0000.0001)   Seconds in section "GUD_SINKING [GUD_FORCING]":
(PID.TID 0000.0001)           User time:   1.7200000000000273
(PID.TID 0000.0001)         System time:   0.0000000000000000
(PID.TID 0000.0001)     Wall clock time:   1.7178308963775635
(PID.TID 0000.0001)          No. starts:           4
(PID.TID 0000.0001)           No. stops:           4
(PID.TID 0000.0001)   Seconds in section "GUD_STEP [GUD_FORCING]":
(PID.TID 0000.0001)           User time:  0.58000000000001251
(PID.TID 0000.0001)         System time:   0.0000000000000000
(PID.TID 0000.0001)     Wall clock time:  0.57506394386291504
(PID.TID 0000.0001)          No. starts:           4
(PID.TID 0000.0001)           No. stops:           4
(PID.TID 0000.0001)   Seconds in section "DIAGS_FILL [GUD_FORCING]":
(PID.TID 0000.0001)           User time:   1.9999999999981810E-002
(PID.TID 0000.0001)         System time:   0.0000000000000000
(PID.TID 0000.0001)     Wall clock time:   1.6282320022583008E-002
(PID.TID 0000.0001)          No. starts:           4
(PID.TID 0000.0001)           No. stops:           4
(PID.TID 0000.0001)   Seconds in section "BLOCKING_EXCHANGES  [FORWARD_STEP]":
(PID.TID 0000.0001)           User time:  0.51000000000001933
(PID.TID 0000.0001)         System time:   0.0000000000000000
(PID.TID 0000.0001)     Wall clock time:  0.50644993782043457
(PID.TID 0000.0001)          No. starts:           4
(PID.TID 0000.0001)           No. stops:           4
(PID.TID 0000.0001)   Seconds in section "DO_STATEVARS_TAVE   [FORWARD_STEP]":
(PID.TID 0000.0001)           User time:  0.63999999999998636
(PID.TID 0000.0001)         System time:   0.0000000000000000
(PID.TID 0000.0001)     Wall clock time:  0.62775182723999023
(PID.TID 0000.0001)          No. starts:           4
(PID.TID 0000.0001)           No. stops:           4
(PID.TID 0000.0001)   Seconds in section "MONITOR             [FORWARD_STEP]":
(PID.TID 0000.0001)           User time:  0.19999999999998863
(PID.TID 0000.0001)         System time:   0.0000000000000000
(PID.TID 0000.0001)     Wall clock time:  0.20997285842895508
(PID.TID 0000.0001)          No. starts:           4
(PID.TID 0000.0001)           No. stops:           4
(PID.TID 0000.0001)   Seconds in section "DO_THE_MODEL_IO     [FORWARD_STEP]":
(PID.TID 0000.0001)           User time:   3.6200000000000330
(PID.TID 0000.0001)         System time:   0.0000000000000000
(PID.TID 0000.0001)     Wall clock time:   3.6260743141174316
(PID.TID 0000.0001)          No. starts:           4
(PID.TID 0000.0001)           No. stops:           4
(PID.TID 0000.0001)   Seconds in section "PTRACERS_RESET      [FORWARD_STEP]":
(PID.TID 0000.0001)           User time:   0.0000000000000000
(PID.TID 0000.0001)         System time:   0.0000000000000000
(PID.TID 0000.0001)     Wall clock time:   4.7922134399414062E-005
(PID.TID 0000.0001)          No. starts:           4
(PID.TID 0000.0001)           No. stops:           4
(PID.TID 0000.0001)   Seconds in section "DO_WRITE_PICKUP     [FORWARD_STEP]":
(PID.TID 0000.0001)           User time:   19.859999999999985
(PID.TID 0000.0001)         System time:   3.1499999999999915
(PID.TID 0000.0001)     Wall clock time:   28.674700975418091
(PID.TID 0000.0001)          No. starts:           4
(PID.TID 0000.0001)           No. stops:           4
(PID.TID 0000.0001) // ======================================================
(PID.TID 0000.0001) // Tile <-> Tile communication statistics
(PID.TID 0000.0001) // ======================================================
(PID.TID 0000.0001) // o Tile number: 000001
(PID.TID 0000.0001) //         No. X exchanges =              0
(PID.TID 0000.0001) //            Max. X spins =              0
(PID.TID 0000.0001) //            Min. X spins =     1000000000
(PID.TID 0000.0001) //          Total. X spins =              0
(PID.TID 0000.0001) //            Avg. X spins =       0.00E+00
(PID.TID 0000.0001) //         No. Y exchanges =              0
(PID.TID 0000.0001) //            Max. Y spins =              0
(PID.TID 0000.0001) //            Min. Y spins =     1000000000
(PID.TID 0000.0001) //          Total. Y spins =              0
(PID.TID 0000.0001) //            Avg. Y spins =       0.00E+00
(PID.TID 0000.0001) // o Thread number: 000001
(PID.TID 0000.0001) //            No. barriers =          38644
(PID.TID 0000.0001) //      Max. barrier spins =              1
(PID.TID 0000.0001) //      Min. barrier spins =              1
(PID.TID 0000.0001) //     Total barrier spins =          38644
(PID.TID 0000.0001) //      Avg. barrier spins =       1.00E+00
PROGRAM MAIN: Execution ended Normally
