(PID.TID 0000.0001) %MON XC_max                       =   5.0000000000000000E-01
(PID.TID 0000.0001) %MON XC_min                       =   5.0000000000000000E-01
(PID.TID 0000.0001) %MON XC_mean                      =   5.0000000000000000E-01
(PID.TID 0000.0001) %MON XC_sd                        =   0.0000000000000000E+00
(PID.TID 0000.0001) %MON XG_max                       =   0.0000000000000000E+00
(PID.TID 0000.0001) %MON XG_min                       =   0.0000000000000000E+00
(PID.TID 0000.0001) %MON XG_mean                      =   0.0000000000000000E+00
(PID.TID 0000.0001) %MON XG_sd                        =   0.0000000000000000E+00
(PID.TID 0000.0001) %MON DXC_max                      =   7.9297382804168723E+04
(PID.TID 0000.0001) %MON DXC_min                      =   7.9297382804168723E+04
(PID.TID 0000.0001) %MON DXC_mean                     =   7.9297382804168723E+04
(PID.TID 0000.0001) %MON DXC_sd                       =   0.0000000000000000E+00
(PID.TID 0000.0001) %MON DXF_max                      =   7.9297382804168723E+04
(PID.TID 0000.0001) %MON DXF_min                      =   7.9297382804168723E+04
(PID.TID 0000.0001) %MON DXF_mean                     =   7.9297382804168723E+04
(PID.TID 0000.0001) %MON DXF_sd                       =   0.0000000000000000E+00
(PID.TID 0000.0001) %MON DXG_max                      =   7.8614345322413312E+04
(PID.TID 0000.0001) %MON DXG_min                      =   7.8614345322413312E+04
(PID.TID 0000.0001) %MON DXG_mean                     =   7.8614345322413312E+04
(PID.TID 0000.0001) %MON DXG_sd                       =   0.0000000000000000E+00
(PID.TID 0000.0001) %MON DXV_max                      =   7.8614345322413312E+04
(PID.TID 0000.0001) %MON DXV_min                      =   7.8614345322413312E+04
(PID.TID 0000.0001) %MON DXV_mean                     =   7.8614345322413312E+04
(PID.TID 0000.0001) %MON DXV_sd                       =   0.0000000000000000E+00
(PID.TID 0000.0001) %MON YC_max                       =  -4.4500000000000000E+01
(PID.TID 0000.0001) %MON YC_min                       =  -4.4500000000000000E+01
(PID.TID 0000.0001) %MON YC_mean                      =  -4.4500000000000000E+01
(PID.TID 0000.0001) %MON YC_sd                        =   0.0000000000000000E+00
(PID.TID 0000.0001) %MON YG_max                       =  -4.5000000000000000E+01
(PID.TID 0000.0001) %MON YG_min                       =  -4.5000000000000000E+01
(PID.TID 0000.0001) %MON YG_mean                      =  -4.5000000000000000E+01
(PID.TID 0000.0001) %MON YG_sd                        =   0.0000000000000000E+00
(PID.TID 0000.0001) %MON DYC_max                      =   1.1117747335203880E+05
(PID.TID 0000.0001) %MON DYC_min                      =   1.1117747335203880E+05
(PID.TID 0000.0001) %MON DYC_mean                     =   1.1117747335203880E+05
(PID.TID 0000.0001) %MON DYC_sd                       =   0.0000000000000000E+00
(PID.TID 0000.0001) %MON DYF_max                      =   1.1117747335203880E+05
(PID.TID 0000.0001) %MON DYF_min                      =   1.1117747335203880E+05
(PID.TID 0000.0001) %MON DYF_mean                     =   1.1117747335203880E+05
(PID.TID 0000.0001) %MON DYF_sd                       =   0.0000000000000000E+00
(PID.TID 0000.0001) %MON DYG_max                      =   1.1117747335203880E+05
(PID.TID 0000.0001) %MON DYG_min                      =   1.1117747335203880E+05
(PID.TID 0000.0001) %MON DYG_mean                     =   1.1117747335203880E+05
(PID.TID 0000.0001) %MON DYG_sd                       =   0.0000000000000000E+00
(PID.TID 0000.0001) %MON DYU_max                      =   1.1117747335203880E+05
(PID.TID 0000.0001) %MON DYU_min                      =   1.1117747335203880E+05
(PID.TID 0000.0001) %MON DYU_mean                     =   1.1117747335203880E+05
(PID.TID 0000.0001) %MON DYU_sd                       =   0.0000000000000000E+00
(PID.TID 0000.0001) %MON RA_max                       =   8.8159707668415375E+09
(PID.TID 0000.0001) %MON RA_min                       =   8.8159707668415375E+09
(PID.TID 0000.0001) %MON RA_mean                      =   8.8159707668415375E+09
(PID.TID 0000.0001) %MON RA_sd                        =   0.0000000000000000E+00
(PID.TID 0000.0001) %MON RAW_max                      =   8.8159707668415375E+09
(PID.TID 0000.0001) %MON RAW_min                      =   8.8159707668415375E+09
(PID.TID 0000.0001) %MON RAW_mean                     =   8.8159707668415375E+09
(PID.TID 0000.0001) %MON RAW_sd                       =   0.0000000000000000E+00
(PID.TID 0000.0001) %MON RAS_max                      =   8.7400333492513199E+09
(PID.TID 0000.0001) %MON RAS_min                      =   8.7400333492513199E+09
(PID.TID 0000.0001) %MON RAS_mean                     =   8.7400333492513199E+09
(PID.TID 0000.0001) %MON RAS_sd                       =   0.0000000000000000E+00
(PID.TID 0000.0001) %MON RAZ_max                      =   8.7400333492513199E+09
(PID.TID 0000.0001) %MON RAZ_min                      =   8.7400333492513199E+09
(PID.TID 0000.0001) %MON RAZ_mean                     =   8.7400333492513199E+09
(PID.TID 0000.0001) %MON RAZ_sd                       =   0.0000000000000000E+00
(PID.TID 0000.0001) %MON AngleCS_max                  =   1.0000000000000000E+00
(PID.TID 0000.0001) %MON AngleCS_min                  =   1.0000000000000000E+00
(PID.TID 0000.0001) %MON AngleCS_mean                 =   1.0000000000000000E+00
(PID.TID 0000.0001) %MON AngleCS_sd                   =   0.0000000000000000E+00
(PID.TID 0000.0001) %MON AngleSN_max                  =   0.0000000000000000E+00
(PID.TID 0000.0001) %MON AngleSN_min                  =   0.0000000000000000E+00
(PID.TID 0000.0001) %MON AngleSN_mean                 =   0.0000000000000000E+00
(PID.TID 0000.0001) %MON AngleSN_sd                   =   0.0000000000000000E+00
(PID.TID 0000.0001) %MON fCori_max                    =  -1.0222233858954729E-04
(PID.TID 0000.0001) %MON fCori_min                    =  -1.0222233858954729E-04
(PID.TID 0000.0001) %MON fCori_mean                   =  -1.0222233858954729E-04
(PID.TID 0000.0001) %MON fCori_sd                     =   0.0000000000000000E+00
(PID.TID 0000.0001) %MON fCoriG_max                   =  -1.0312619976227580E-04
(PID.TID 0000.0001) %MON fCoriG_min                   =  -1.0312619976227580E-04
(PID.TID 0000.0001) %MON fCoriG_mean                  =  -1.0312619976227580E-04
(PID.TID 0000.0001) %MON fCoriG_sd                    =   0.0000000000000000E+00
(PID.TID 0000.0001) %MON fCoriCos_max                 =   1.0402220747562310E-04
(PID.TID 0000.0001) %MON fCoriCos_min                 =   1.0402220747562310E-04
(PID.TID 0000.0001) %MON fCoriCos_mean                =   1.0402220747562310E-04
(PID.TID 0000.0001) %MON fCoriCos_sd                  =   0.0000000000000000E+00
(PID.TID 0000.0001) %MON time_tsnumber                =                     0
(PID.TID 0000.0001) %MON time_secondsf                =   0.0000000000000000E+00
(PID.TID 0000.0001) %MON dynstat_eta_max              =   0.0000000000000000E+00
(PID.TID 0000.0001) %MON dynstat_eta_min              =   0.0000000000000000E+00
(PID.TID 0000.0001) %MON dynstat_eta_mean             =   0.0000000000000000E+00
(PID.TID 0000.0001) %MON dynstat_eta_sd               =   0.0000000000000000E+00
(PID.TID 0000.0001) %MON dynstat_eta_del2             =   0.0000000000000000E+00
(PID.TID 0000.0001) %MON dynstat_uvel_max             =   0.0000000000000000E+00
(PID.TID 0000.0001) %MON dynstat_uvel_min             =   0.0000000000000000E+00
(PID.TID 0000.0001) %MON dynstat_uvel_mean            =   0.0000000000000000E+00
(PID.TID 0000.0001) %MON dynstat_uvel_sd              =   0.0000000000000000E+00
(PID.TID 0000.0001) %MON dynstat_uvel_del2            =   0.0000000000000000E+00
(PID.TID 0000.0001) %MON dynstat_vvel_max             =   0.0000000000000000E+00
(PID.TID 0000.0001) %MON dynstat_vvel_min             =   0.0000000000000000E+00
(PID.TID 0000.0001) %MON dynstat_vvel_mean            =   0.0000000000000000E+00
(PID.TID 0000.0001) %MON dynstat_vvel_sd              =   0.0000000000000000E+00
(PID.TID 0000.0001) %MON dynstat_vvel_del2            =   0.0000000000000000E+00
(PID.TID 0000.0001) %MON dynstat_wvel_max             =   0.0000000000000000E+00
(PID.TID 0000.0001) %MON dynstat_wvel_min             =   0.0000000000000000E+00
(PID.TID 0000.0001) %MON dynstat_wvel_mean            =   0.0000000000000000E+00
(PID.TID 0000.0001) %MON dynstat_wvel_sd              =   0.0000000000000000E+00
(PID.TID 0000.0001) %MON dynstat_wvel_del2            =   0.0000000000000000E+00
(PID.TID 0000.0001) %MON dynstat_theta_max            =   8.2977504730224609E+00
(PID.TID 0000.0001) %MON dynstat_theta_min            =   1.5167000293731689E+00
(PID.TID 0000.0001) %MON dynstat_theta_mean           =   2.8239317499687400E+00
(PID.TID 0000.0001) %MON dynstat_theta_sd             =   1.3644468593155439E+00
(PID.TID 0000.0001) %MON dynstat_theta_del2           =   0.0000000000000000E+00
(PID.TID 0000.0001) %MON dynstat_salt_max             =   3.5000000000000000E+01
(PID.TID 0000.0001) %MON dynstat_salt_min             =   3.5000000000000000E+01
(PID.TID 0000.0001) %MON dynstat_salt_mean            =   3.4999999999999986E+01
(PID.TID 0000.0001) %MON dynstat_salt_sd              =   1.4210854715202004E-14
(PID.TID 0000.0001) %MON dynstat_salt_del2            =   0.0000000000000000E+00
(PID.TID 0000.0001) %MON dynstat_sst_max              =   8.2959995269775391E+00
(PID.TID 0000.0001) %MON dynstat_sst_min              =   8.2959995269775391E+00
(PID.TID 0000.0001) %MON dynstat_sst_mean             =   8.2959995269775391E+00
(PID.TID 0000.0001) %MON dynstat_sst_sd               =   0.0000000000000000E+00
(PID.TID 0000.0001) %MON dynstat_sst_del2             =   0.0000000000000000E+00
(PID.TID 0000.0001) %MON dynstat_sss_max              =   3.5000000000000000E+01
(PID.TID 0000.0001) %MON dynstat_sss_min              =   3.5000000000000000E+01
(PID.TID 0000.0001) %MON dynstat_sss_mean             =   3.5000000000000000E+01
(PID.TID 0000.0001) %MON dynstat_sss_sd               =   0.0000000000000000E+00
(PID.TID 0000.0001) %MON dynstat_sss_del2             =   0.0000000000000000E+00
(PID.TID 0000.0001) %MON forcing_qnet_max             =   0.0000000000000000E+00
(PID.TID 0000.0001) %MON forcing_qnet_min             =   0.0000000000000000E+00
(PID.TID 0000.0001) %MON forcing_qnet_mean            =   0.0000000000000000E+00
(PID.TID 0000.0001) %MON forcing_qnet_sd              =   0.0000000000000000E+00
(PID.TID 0000.0001) %MON forcing_qnet_del2            =   0.0000000000000000E+00
(PID.TID 0000.0001) %MON forcing_qsw_max              =   0.0000000000000000E+00
(PID.TID 0000.0001) %MON forcing_qsw_min              =   0.0000000000000000E+00
(PID.TID 0000.0001) %MON forcing_qsw_mean             =   0.0000000000000000E+00
(PID.TID 0000.0001) %MON forcing_qsw_sd               =   0.0000000000000000E+00
(PID.TID 0000.0001) %MON forcing_qsw_del2             =   0.0000000000000000E+00
(PID.TID 0000.0001) %MON forcing_empmr_max            =   0.0000000000000000E+00
(PID.TID 0000.0001) %MON forcing_empmr_min            =   0.0000000000000000E+00
(PID.TID 0000.0001) %MON forcing_empmr_mean           =   0.0000000000000000E+00
(PID.TID 0000.0001) %MON forcing_empmr_sd             =   0.0000000000000000E+00
(PID.TID 0000.0001) %MON forcing_empmr_del2           =   0.0000000000000000E+00
(PID.TID 0000.0001) %MON forcing_fu_max               =   2.3210000991821289E+00
(PID.TID 0000.0001) %MON forcing_fu_min               =   2.3210000991821289E+00
(PID.TID 0000.0001) %MON forcing_fu_mean              =   2.3210000991821289E+00
(PID.TID 0000.0001) %MON forcing_fu_sd                =   0.0000000000000000E+00
(PID.TID 0000.0001) %MON forcing_fu_del2              =   0.0000000000000000E+00
(PID.TID 0000.0001) %MON forcing_fv_max               =  -4.5800000429153442E-01
(PID.TID 0000.0001) %MON forcing_fv_min               =  -4.5800000429153442E-01
(PID.TID 0000.0001) %MON forcing_fv_mean              =  -4.5800000429153448E-01
(PID.TID 0000.0001) %MON forcing_fv_sd                =   5.5511151231257827E-17
(PID.TID 0000.0001) %MON forcing_fv_del2              =   0.0000000000000000E+00
(PID.TID 0000.0001) %MON advcfl_uvel_max              =   0.0000000000000000E+00
(PID.TID 0000.0001) %MON advcfl_vvel_max              =   0.0000000000000000E+00
(PID.TID 0000.0001) %MON advcfl_wvel_max              =   0.0000000000000000E+00
(PID.TID 0000.0001) %MON advcfl_W_hf_max              =   0.0000000000000000E+00
(PID.TID 0000.0001) %MON pe_b_mean                    =   0.0000000000000000E+00
(PID.TID 0000.0001) %MON ke_max                       =   0.0000000000000000E+00
(PID.TID 0000.0001) %MON ke_mean                      =   0.0000000000000000E+00
(PID.TID 0000.0001) %MON ke_vol                       =   3.0811817830111180E+13
(PID.TID 0000.0001) %MON vort_r_min                   =   0.0000000000000000E+00
(PID.TID 0000.0001) %MON vort_r_max                   =   0.0000000000000000E+00
(PID.TID 0000.0001) %MON vort_a_mean                  =  -1.0312619976227577E-04
(PID.TID 0000.0001) %MON vort_a_sd                    =   2.8760747774580336E-12
(PID.TID 0000.0001) %MON vort_p_mean                  =  -1.0312619976227577E-04
(PID.TID 0000.0001) %MON vort_p_sd                    =   2.8760747774580336E-12
(PID.TID 0000.0001) %MON surfExpan_theta_mean         =   0.0000000000000000E+00
(PID.TID 0000.0001) %MON surfExpan_salt_mean          =   0.0000000000000000E+00
(PID.TID 0000.0001) %MON trcstat_ptracer01_max        =   2.2367697753906250E+03
(PID.TID 0000.0001) %MON trcstat_ptracer01_min        =   2.0758476562500000E+03
(PID.TID 0000.0001) %MON trcstat_ptracer01_mean       =   2.2097558450548772E+03
(PID.TID 0000.0001) %MON trcstat_ptracer01_sd         =   3.8971089128085303E+01
(PID.TID 0000.0001) %MON trcstat_ptracer01_del2       =   0.0000000000000000E+00
(PID.TID 0000.0001) %MON trcstat_ptracer02_max        =   7.3161345720291138E-01
(PID.TID 0000.0001) %MON trcstat_ptracer02_min        =   5.2252426030463539E-06
(PID.TID 0000.0001) %MON trcstat_ptracer02_mean       =   2.1146586623550522E-02
(PID.TID 0000.0001) %MON trcstat_ptracer02_sd         =   1.1460123134912985E-01
(PID.TID 0000.0001) %MON trcstat_ptracer02_del2       =   0.0000000000000000E+00
(PID.TID 0000.0001) %MON trcstat_ptracer03_max        =   3.3000010251998901E-01
(PID.TID 0000.0001) %MON trcstat_ptracer03_min        =   1.1596751573961228E-04
(PID.TID 0000.0001) %MON trcstat_ptracer03_mean       =   2.6355158489910969E-02
(PID.TID 0000.0001) %MON trcstat_ptracer03_sd         =   6.2755794020604300E-02
(PID.TID 0000.0001) %MON trcstat_ptracer03_del2       =   0.0000000000000000E+00
(PID.TID 0000.0001) %MON trcstat_ptracer04_max        =   3.3950199127197266E+01
(PID.TID 0000.0001) %MON trcstat_ptracer04_min        =   1.6703975677490234E+01
(PID.TID 0000.0001) %MON trcstat_ptracer04_mean       =   3.0465642077728397E+01
(PID.TID 0000.0001) %MON trcstat_ptracer04_sd         =   3.3248084639155957E+00
(PID.TID 0000.0001) %MON trcstat_ptracer04_del2       =   0.0000000000000000E+00
(PID.TID 0000.0001) %MON trcstat_ptracer05_max        =   2.3152000904083252E+00
(PID.TID 0000.0001) %MON trcstat_ptracer05_min        =   1.0712499618530273E+00
(PID.TID 0000.0001) %MON trcstat_ptracer05_mean       =   2.0495008366643437E+00
(PID.TID 0000.0001) %MON trcstat_ptracer05_sd         =   2.5615688792220837E-01
(PID.TID 0000.0001) %MON trcstat_ptracer05_del2       =   0.0000000000000000E+00
(PID.TID 0000.0001) %MON trcstat_ptracer06_max        =   9.2368797302246094E+01
(PID.TID 0000.0001) %MON trcstat_ptracer06_min        =   3.8889998197555542E-01
(PID.TID 0000.0001) %MON trcstat_ptracer06_mean       =   6.0517938730372201E+01
(PID.TID 0000.0001) %MON trcstat_ptracer06_sd         =   2.7564406505864060E+01
(PID.TID 0000.0001) %MON trcstat_ptracer06_del2       =   0.0000000000000000E+00
(PID.TID 0000.0001) %MON trcstat_ptracer07_max        =   1.3000000035390258E-03
(PID.TID 0000.0001) %MON trcstat_ptracer07_min        =   1.3000000035390258E-03
(PID.TID 0000.0001) %MON trcstat_ptracer07_mean       =   1.3000000035390256E-03
(PID.TID 0000.0001) %MON trcstat_ptracer07_sd         =   2.1684043449710089E-19
(PID.TID 0000.0001) %MON trcstat_ptracer07_del2       =   0.0000000000000000E+00
(PID.TID 0000.0001) %MON trcstat_ptracer08_max        =   0.0000000000000000E+00
(PID.TID 0000.0001) %MON trcstat_ptracer08_min        =   0.0000000000000000E+00
(PID.TID 0000.0001) %MON trcstat_ptracer08_mean       =   0.0000000000000000E+00
(PID.TID 0000.0001) %MON trcstat_ptracer08_sd         =   0.0000000000000000E+00
(PID.TID 0000.0001) %MON trcstat_ptracer08_del2       =   0.0000000000000000E+00
(PID.TID 0000.0001) %MON trcstat_ptracer09_max        =   2.4468221664428711E+00
(PID.TID 0000.0001) %MON trcstat_ptracer09_min        =   0.0000000000000000E+00
(PID.TID 0000.0001) %MON trcstat_ptracer09_mean       =   9.9987714799208927E-02
(PID.TID 0000.0001) %MON trcstat_ptracer09_sd         =   4.0749630621924643E-01
(PID.TID 0000.0001) %MON trcstat_ptracer09_del2       =   0.0000000000000000E+00
(PID.TID 0000.0001) %MON trcstat_ptracer10_max        =   1.5292638540267944E-01
(PID.TID 0000.0001) %MON trcstat_ptracer10_min        =   0.0000000000000000E+00
(PID.TID 0000.0001) %MON trcstat_ptracer10_mean       =   6.2492321749505579E-03
(PID.TID 0000.0001) %MON trcstat_ptracer10_sd         =   2.5468519138702902E-02
(PID.TID 0000.0001) %MON trcstat_ptracer10_del2       =   0.0000000000000000E+00
(PID.TID 0000.0001) %MON trcstat_ptracer11_max        =   1.5292638272512704E-04
(PID.TID 0000.0001) %MON trcstat_ptracer11_min        =   0.0000000000000000E+00
(PID.TID 0000.0001) %MON trcstat_ptracer11_mean       =   6.2492321767615809E-06
(PID.TID 0000.0001) %MON trcstat_ptracer11_sd         =   2.5468519074562691E-05
(PID.TID 0000.0001) %MON trcstat_ptracer11_del2       =   0.0000000000000000E+00
(PID.TID 0000.0001) %MON trcstat_ptracer12_max        =   0.0000000000000000E+00
(PID.TID 0000.0001) %MON trcstat_ptracer12_min        =   0.0000000000000000E+00
(PID.TID 0000.0001) %MON trcstat_ptracer12_mean       =   0.0000000000000000E+00
(PID.TID 0000.0001) %MON trcstat_ptracer12_sd         =   0.0000000000000000E+00
(PID.TID 0000.0001) %MON trcstat_ptracer12_del2       =   0.0000000000000000E+00
(PID.TID 0000.0001) %MON trcstat_ptracer13_max        =   4.2480352520942688E-01
(PID.TID 0000.0001) %MON trcstat_ptracer13_min        =   5.2072847029194236E-04
(PID.TID 0000.0001) %MON trcstat_ptracer13_mean       =   7.5706890336862717E-02
(PID.TID 0000.0001) %MON trcstat_ptracer13_sd         =   1.2309789028830541E-01
(PID.TID 0000.0001) %MON trcstat_ptracer13_del2       =   0.0000000000000000E+00
(PID.TID 0000.0001) %MON trcstat_ptracer14_max        =   2.6550220325589180E-02
(PID.TID 0000.0001) %MON trcstat_ptracer14_min        =   3.2545529393246397E-05
(PID.TID 0000.0001) %MON trcstat_ptracer14_mean       =   4.7316806460539198E-03
(PID.TID 0000.0001) %MON trcstat_ptracer14_sd         =   7.6936181430190881E-03
(PID.TID 0000.0001) %MON trcstat_ptracer14_del2       =   0.0000000000000000E+00
(PID.TID 0000.0001) %MON trcstat_ptracer15_max        =   1.7408879648428410E-04
(PID.TID 0000.0001) %MON trcstat_ptracer15_min        =   1.3631536177616255E-10
(PID.TID 0000.0001) %MON trcstat_ptracer15_mean       =   8.0100022774682106E-05
(PID.TID 0000.0001) %MON trcstat_ptracer15_sd         =   6.8134860848991478E-05
(PID.TID 0000.0001) %MON trcstat_ptracer15_del2       =   0.0000000000000000E+00
(PID.TID 0000.0001) %MON trcstat_ptracer16_max        =   2.6550218535703607E-05
(PID.TID 0000.0001) %MON trcstat_ptracer16_min        =   3.2545532491212725E-08
(PID.TID 0000.0001) %MON trcstat_ptracer16_mean       =   4.7316805416602897E-06
(PID.TID 0000.0001) %MON trcstat_ptracer16_sd         =   7.6936179296091290E-06
(PID.TID 0000.0001) %MON trcstat_ptracer16_del2       =   0.0000000000000000E+00
(PID.TID 0000.0001) %MON trcstat_ptracer17_max        =   0.0000000000000000E+00
(PID.TID 0000.0001) %MON trcstat_ptracer17_min        =   0.0000000000000000E+00
(PID.TID 0000.0001) %MON trcstat_ptracer17_mean       =   0.0000000000000000E+00
(PID.TID 0000.0001) %MON trcstat_ptracer17_sd         =   0.0000000000000000E+00
(PID.TID 0000.0001) %MON trcstat_ptracer17_del2       =   0.0000000000000000E+00
(PID.TID 0000.0001) %MON trcstat_ptracer18_max        =   2.3492329101562500E+03
(PID.TID 0000.0001) %MON trcstat_ptracer18_min        =   2.2738413085937500E+03
(PID.TID 0000.0001) %MON trcstat_ptracer18_mean       =   2.3217994589089321E+03
(PID.TID 0000.0001) %MON trcstat_ptracer18_sd         =   2.4949346199964765E+01
(PID.TID 0000.0001) %MON trcstat_ptracer18_del2       =   0.0000000000000000E+00
(PID.TID 0000.0001) %MON trcstat_ptracer19_max        =   3.0081970214843750E+02
(PID.TID 0000.0001) %MON trcstat_ptracer19_min        =   1.9389585876464844E+02
(PID.TID 0000.0001) %MON trcstat_ptracer19_mean       =   2.2311660945603089E+02
(PID.TID 0000.0001) %MON trcstat_ptracer19_sd         =   2.8042898514663381E+01
(PID.TID 0000.0001) %MON trcstat_ptracer19_del2       =   0.0000000000000000E+00
(PID.TID 0000.0001) %MON trcstat_ptracer20_max        =   6.7132097683497705E-04
(PID.TID 0000.0001) %MON trcstat_ptracer20_min        =   0.0000000000000000E+00
(PID.TID 0000.0001) %MON trcstat_ptracer20_mean       =   2.0654946074344777E-05
(PID.TID 0000.0001) %MON trcstat_ptracer20_sd         =   9.1096206219399613E-05
(PID.TID 0000.0001) %MON trcstat_ptracer20_del2       =   0.0000000000000000E+00
(PID.TID 0000.0001) %MON trcstat_ptracer21_max        =   6.7132097683497705E-04
(PID.TID 0000.0001) %MON trcstat_ptracer21_min        =   0.0000000000000000E+00
(PID.TID 0000.0001) %MON trcstat_ptracer21_mean       =   2.0654946074344777E-05
(PID.TID 0000.0001) %MON trcstat_ptracer21_sd         =   9.1096206219399613E-05
(PID.TID 0000.0001) %MON trcstat_ptracer21_del2       =   0.0000000000000000E+00
(PID.TID 0000.0001) %MON trcstat_ptracer22_max        =   6.7132097683497705E-04
(PID.TID 0000.0001) %MON trcstat_ptracer22_min        =   0.0000000000000000E+00
(PID.TID 0000.0001) %MON trcstat_ptracer22_mean       =   2.0654946074344777E-05
(PID.TID 0000.0001) %MON trcstat_ptracer22_sd         =   9.1096206219399613E-05
(PID.TID 0000.0001) %MON trcstat_ptracer22_del2       =   0.0000000000000000E+00
(PID.TID 0000.0001) %MON trcstat_ptracer23_max        =   6.7132097683497705E-04
(PID.TID 0000.0001) %MON trcstat_ptracer23_min        =   0.0000000000000000E+00
(PID.TID 0000.0001) %MON trcstat_ptracer23_mean       =   2.0654946074344777E-05
(PID.TID 0000.0001) %MON trcstat_ptracer23_sd         =   9.1096206219399613E-05
(PID.TID 0000.0001) %MON trcstat_ptracer23_del2       =   0.0000000000000000E+00
(PID.TID 0000.0001) %MON trcstat_ptracer24_max        =   6.7132097683497705E-04
(PID.TID 0000.0001) %MON trcstat_ptracer24_min        =   0.0000000000000000E+00
(PID.TID 0000.0001) %MON trcstat_ptracer24_mean       =   2.0654946074344777E-05
(PID.TID 0000.0001) %MON trcstat_ptracer24_sd         =   9.1096206219399613E-05
(PID.TID 0000.0001) %MON trcstat_ptracer24_del2       =   0.0000000000000000E+00
(PID.TID 0000.0001) %MON trcstat_ptracer25_max        =   6.7132097683497705E-05
(PID.TID 0000.0001) %MON trcstat_ptracer25_min        =   0.0000000000000000E+00
(PID.TID 0000.0001) %MON trcstat_ptracer25_mean       =   2.0654946074344771E-06
(PID.TID 0000.0001) %MON trcstat_ptracer25_sd         =   9.1096206219399602E-06
(PID.TID 0000.0001) %MON trcstat_ptracer25_del2       =   0.0000000000000000E+00
(PID.TID 0000.0001) %MON trcstat_ptracer26_max        =   6.7132097683497705E-05
(PID.TID 0000.0001) %MON trcstat_ptracer26_min        =   0.0000000000000000E+00
(PID.TID 0000.0001) %MON trcstat_ptracer26_mean       =   2.0654946074344771E-06
(PID.TID 0000.0001) %MON trcstat_ptracer26_sd         =   9.1096206219399602E-06
(PID.TID 0000.0001) %MON trcstat_ptracer26_del2       =   0.0000000000000000E+00
(PID.TID 0000.0001) %MON trcstat_ptracer27_max        =   6.7132097683497705E-04
(PID.TID 0000.0001) %MON trcstat_ptracer27_min        =   0.0000000000000000E+00
(PID.TID 0000.0001) %MON trcstat_ptracer27_mean       =   2.0654946074344777E-05
(PID.TID 0000.0001) %MON trcstat_ptracer27_sd         =   9.1096206219399613E-05
(PID.TID 0000.0001) %MON trcstat_ptracer27_del2       =   0.0000000000000000E+00
(PID.TID 0000.0001) %MON trcstat_ptracer28_max        =   6.7132097683497705E-04
(PID.TID 0000.0001) %MON trcstat_ptracer28_min        =   0.0000000000000000E+00
(PID.TID 0000.0001) %MON trcstat_ptracer28_mean       =   2.0654946074344777E-05
(PID.TID 0000.0001) %MON trcstat_ptracer28_sd         =   9.1096206219399613E-05
(PID.TID 0000.0001) %MON trcstat_ptracer28_del2       =   0.0000000000000000E+00
(PID.TID 0000.0001) %MON trcstat_ptracer29_max        =   2.8491763025522232E+00
(PID.TID 0000.0001) %MON trcstat_ptracer29_min        =   0.0000000000000000E+00
(PID.TID 0000.0001) %MON trcstat_ptracer29_mean       =   8.2688722730756156E-02
(PID.TID 0000.0001) %MON trcstat_ptracer29_sd         =   4.2584796438359918E-01
(PID.TID 0000.0001) %MON trcstat_ptracer29_del2       =   0.0000000000000000E+00
(PID.TID 0000.0001) %MON trcstat_ptracer30_max        =   2.8491763025522232E+00
(PID.TID 0000.0001) %MON trcstat_ptracer30_min        =   0.0000000000000000E+00
(PID.TID 0000.0001) %MON trcstat_ptracer30_mean       =   8.2688722730756156E-02
(PID.TID 0000.0001) %MON trcstat_ptracer30_sd         =   4.2584796438359918E-01
(PID.TID 0000.0001) %MON trcstat_ptracer30_del2       =   0.0000000000000000E+00
(PID.TID 0000.0001) %MON time_tsnumber                =                     1
(PID.TID 0000.0001) %MON time_secondsf                =   3.6000000000000000E+03
(PID.TID 0000.0001) %MON dynstat_eta_max              =   0.0000000000000000E+00
(PID.TID 0000.0001) %MON dynstat_eta_min              =   0.0000000000000000E+00
(PID.TID 0000.0001) %MON dynstat_eta_mean             =   0.0000000000000000E+00
(PID.TID 0000.0001) %MON dynstat_eta_sd               =   0.0000000000000000E+00
(PID.TID 0000.0001) %MON dynstat_eta_del2             =   0.0000000000000000E+00
(PID.TID 0000.0001) %MON dynstat_uvel_max             =   0.0000000000000000E+00
(PID.TID 0000.0001) %MON dynstat_uvel_min             =   0.0000000000000000E+00
(PID.TID 0000.0001) %MON dynstat_uvel_mean            =   0.0000000000000000E+00
(PID.TID 0000.0001) %MON dynstat_uvel_sd              =   0.0000000000000000E+00
(PID.TID 0000.0001) %MON dynstat_uvel_del2            =   0.0000000000000000E+00
(PID.TID 0000.0001) %MON dynstat_vvel_max             =   0.0000000000000000E+00
(PID.TID 0000.0001) %MON dynstat_vvel_min             =   0.0000000000000000E+00
(PID.TID 0000.0001) %MON dynstat_vvel_mean            =   0.0000000000000000E+00
(PID.TID 0000.0001) %MON dynstat_vvel_sd              =   0.0000000000000000E+00
(PID.TID 0000.0001) %MON dynstat_vvel_del2            =   0.0000000000000000E+00
(PID.TID 0000.0001) %MON dynstat_wvel_max             =   0.0000000000000000E+00
(PID.TID 0000.0001) %MON dynstat_wvel_min             =   0.0000000000000000E+00
(PID.TID 0000.0001) %MON dynstat_wvel_mean            =   0.0000000000000000E+00
(PID.TID 0000.0001) %MON dynstat_wvel_sd              =   0.0000000000000000E+00
(PID.TID 0000.0001) %MON dynstat_wvel_del2            =   0.0000000000000000E+00
(PID.TID 0000.0001) %MON dynstat_theta_max            =   8.2824962465671614E+00
(PID.TID 0000.0001) %MON dynstat_theta_min            =   1.5167006338840423E+00
(PID.TID 0000.0001) %MON dynstat_theta_mean           =   2.8239040467417342E+00
(PID.TID 0000.0001) %MON dynstat_theta_sd             =   1.3643285852844826E+00
(PID.TID 0000.0001) %MON dynstat_theta_del2           =   0.0000000000000000E+00
(PID.TID 0000.0001) %MON dynstat_salt_max             =   3.5000000000000000E+01
(PID.TID 0000.0001) %MON dynstat_salt_min             =   3.5000000000000000E+01
(PID.TID 0000.0001) %MON dynstat_salt_mean            =   3.4999999999999986E+01
(PID.TID 0000.0001) %MON dynstat_salt_sd              =   1.4210854715202004E-14
(PID.TID 0000.0001) %MON dynstat_salt_del2            =   0.0000000000000000E+00
(PID.TID 0000.0001) %MON dynstat_sst_max              =   8.2824962465671614E+00
(PID.TID 0000.0001) %MON dynstat_sst_min              =   8.2824962465671614E+00
(PID.TID 0000.0001) %MON dynstat_sst_mean             =   8.2824962465671614E+00
(PID.TID 0000.0001) %MON dynstat_sst_sd               =   0.0000000000000000E+00
(PID.TID 0000.0001) %MON dynstat_sst_del2             =   0.0000000000000000E+00
(PID.TID 0000.0001) %MON dynstat_sss_max              =   3.5000000000000000E+01
(PID.TID 0000.0001) %MON dynstat_sss_min              =   3.5000000000000000E+01
(PID.TID 0000.0001) %MON dynstat_sss_mean             =   3.5000000000000000E+01
(PID.TID 0000.0001) %MON dynstat_sss_sd               =   0.0000000000000000E+00
(PID.TID 0000.0001) %MON dynstat_sss_del2             =   0.0000000000000000E+00
(PID.TID 0000.0001) %MON forcing_qnet_max             =   0.0000000000000000E+00
(PID.TID 0000.0001) %MON forcing_qnet_min             =   0.0000000000000000E+00
(PID.TID 0000.0001) %MON forcing_qnet_mean            =   0.0000000000000000E+00
(PID.TID 0000.0001) %MON forcing_qnet_sd              =   0.0000000000000000E+00
(PID.TID 0000.0001) %MON forcing_qnet_del2            =   0.0000000000000000E+00
(PID.TID 0000.0001) %MON forcing_qsw_max              =   0.0000000000000000E+00
(PID.TID 0000.0001) %MON forcing_qsw_min              =   0.0000000000000000E+00
(PID.TID 0000.0001) %MON forcing_qsw_mean             =   0.0000000000000000E+00
(PID.TID 0000.0001) %MON forcing_qsw_sd               =   0.0000000000000000E+00
(PID.TID 0000.0001) %MON forcing_qsw_del2             =   0.0000000000000000E+00
(PID.TID 0000.0001) %MON forcing_empmr_max            =   0.0000000000000000E+00
(PID.TID 0000.0001) %MON forcing_empmr_min            =   0.0000000000000000E+00
(PID.TID 0000.0001) %MON forcing_empmr_mean           =   0.0000000000000000E+00
(PID.TID 0000.0001) %MON forcing_empmr_sd             =   0.0000000000000000E+00
(PID.TID 0000.0001) %MON forcing_empmr_del2           =   0.0000000000000000E+00
(PID.TID 0000.0001) %MON forcing_fu_max               =   2.2645000219345093E+00
(PID.TID 0000.0001) %MON forcing_fu_min               =   2.2645000219345093E+00
(PID.TID 0000.0001) %MON forcing_fu_mean              =   2.2645000219345093E+00
(PID.TID 0000.0001) %MON forcing_fu_sd                =   0.0000000000000000E+00
(PID.TID 0000.0001) %MON forcing_fu_del2              =   0.0000000000000000E+00
(PID.TID 0000.0001) %MON forcing_fv_max               =  -4.1300000250339508E-01
(PID.TID 0000.0001) %MON forcing_fv_min               =  -4.1300000250339508E-01
(PID.TID 0000.0001) %MON forcing_fv_mean              =  -4.1300000250339503E-01
(PID.TID 0000.0001) %MON forcing_fv_sd                =   5.5511151231257827E-17
(PID.TID 0000.0001) %MON forcing_fv_del2              =   0.0000000000000000E+00
(PID.TID 0000.0001) %MON advcfl_uvel_max              =   0.0000000000000000E+00
(PID.TID 0000.0001) %MON advcfl_vvel_max              =   0.0000000000000000E+00
(PID.TID 0000.0001) %MON advcfl_wvel_max              =   0.0000000000000000E+00
(PID.TID 0000.0001) %MON advcfl_W_hf_max              =   0.0000000000000000E+00
(PID.TID 0000.0001) %MON pe_b_mean                    =   0.0000000000000000E+00
(PID.TID 0000.0001) %MON ke_max                       =   0.0000000000000000E+00
(PID.TID 0000.0001) %MON ke_mean                      =   0.0000000000000000E+00
(PID.TID 0000.0001) %MON ke_vol                       =   3.0811817830111180E+13
(PID.TID 0000.0001) %MON vort_r_min                   =   0.0000000000000000E+00
(PID.TID 0000.0001) %MON vort_r_max                   =   0.0000000000000000E+00
(PID.TID 0000.0001) %MON vort_a_mean                  =  -1.0312619976227577E-04
(PID.TID 0000.0001) %MON vort_a_sd                    =   2.8760747774580336E-12
(PID.TID 0000.0001) %MON vort_p_mean                  =  -1.0312619976227577E-04
(PID.TID 0000.0001) %MON vort_p_sd                    =   2.8760747774580336E-12
(PID.TID 0000.0001) %MON surfExpan_theta_mean         =   0.0000000000000000E+00
(PID.TID 0000.0001) %MON surfExpan_salt_mean          =   0.0000000000000000E+00
(PID.TID 0000.0001) %MON trcstat_ptracer01_max        =   2.2367697741573443E+03
(PID.TID 0000.0001) %MON trcstat_ptracer01_min        =   2.0779191588839476E+03
(PID.TID 0000.0001) %MON trcstat_ptracer01_mean       =   2.2097558006817676E+03
(PID.TID 0000.0001) %MON trcstat_ptracer01_sd         =   3.8970828453972508E+01
(PID.TID 0000.0001) %MON trcstat_ptracer01_del2       =   0.0000000000000000E+00
(PID.TID 0000.0001) %MON trcstat_ptracer02_max        =   7.2905671557756935E-01
(PID.TID 0000.0001) %MON trcstat_ptracer02_min        =   4.9936089808258714E-06
(PID.TID 0000.0001) %MON trcstat_ptracer02_mean       =   1.9934302153098042E-02
(PID.TID 0000.0001) %MON trcstat_ptracer02_sd         =   1.0820624721311313E-01
(PID.TID 0000.0001) %MON trcstat_ptracer02_del2       =   0.0000000000000000E+00
(PID.TID 0000.0001) %MON trcstat_ptracer03_max        =   3.4256024903409837E-01
(PID.TID 0000.0001) %MON trcstat_ptracer03_min        =   1.1591976312977867E-04
(PID.TID 0000.0001) %MON trcstat_ptracer03_mean       =   2.7527219911100846E-02
(PID.TID 0000.0001) %MON trcstat_ptracer03_sd         =   6.7330600338873434E-02
(PID.TID 0000.0001) %MON trcstat_ptracer03_del2       =   0.0000000000000000E+00
(PID.TID 0000.0001) %MON trcstat_ptracer04_max        =   3.3950225560835456E+01
(PID.TID 0000.0001) %MON trcstat_ptracer04_min        =   1.6716525981216208E+01
(PID.TID 0000.0001) %MON trcstat_ptracer04_mean       =   3.0465743564184894E+01
(PID.TID 0000.0001) %MON trcstat_ptracer04_sd         =   3.3245427800223726E+00
(PID.TID 0000.0001) %MON trcstat_ptracer04_del2       =   0.0000000000000000E+00
(PID.TID 0000.0001) %MON trcstat_ptracer05_max        =   2.3152004868625160E+00
(PID.TID 0000.0001) %MON trcstat_ptracer05_min        =   1.0808150262291656E+00
(PID.TID 0000.0001) %MON trcstat_ptracer05_mean       =   2.0495046656161811E+00
(PID.TID 0000.0001) %MON trcstat_ptracer05_sd         =   2.5614737989563696E-01
(PID.TID 0000.0001) %MON trcstat_ptracer05_del2       =   0.0000000000000000E+00
(PID.TID 0000.0001) %MON trcstat_ptracer06_max        =   9.2368795552511472E+01
(PID.TID 0000.0001) %MON trcstat_ptracer06_min        =   4.2814067433171349E-01
(PID.TID 0000.0001) %MON trcstat_ptracer06_mean       =   6.0517938734431745E+01
(PID.TID 0000.0001) %MON trcstat_ptracer06_sd         =   2.7564394990674831E+01
(PID.TID 0000.0001) %MON trcstat_ptracer06_del2       =   0.0000000000000000E+00
(PID.TID 0000.0001) %MON trcstat_ptracer07_max        =   1.0618725947348464E-03
(PID.TID 0000.0001) %MON trcstat_ptracer07_min        =   1.0610317088646426E-03
(PID.TID 0000.0001) %MON trcstat_ptracer07_mean       =   1.0610449877200491E-03
(PID.TID 0000.0001) %MON trcstat_ptracer07_sd         =   4.4565659591265073E-08
(PID.TID 0000.0001) %MON trcstat_ptracer07_del2       =   0.0000000000000000E+00
(PID.TID 0000.0001) %MON trcstat_ptracer08_max        =   5.5650554393705098E-03
(PID.TID 0000.0001) %MON trcstat_ptracer08_min        =   2.6845988359927105E-73
(PID.TID 0000.0001) %MON trcstat_ptracer08_mean       =   1.6151565652514421E-04
(PID.TID 0000.0001) %MON trcstat_ptracer08_sd         =   8.3150213354959274E-04
(PID.TID 0000.0001) %MON trcstat_ptracer08_del2       =   0.0000000000000000E+00
(PID.TID 0000.0001) %MON trcstat_ptracer09_max        =   2.4468836433309313E+00
(PID.TID 0000.0001) %MON trcstat_ptracer09_min        =   1.7111830528282524E-38
(PID.TID 0000.0001) %MON trcstat_ptracer09_mean       =   9.9982857158031360E-02
(PID.TID 0000.0001) %MON trcstat_ptracer09_sd         =   4.0749209842550294E-01
(PID.TID 0000.0001) %MON trcstat_ptracer09_del2       =   0.0000000000000000E+00
(PID.TID 0000.0001) %MON trcstat_ptracer10_max        =   1.5293021436652604E-01
(PID.TID 0000.0001) %MON trcstat_ptracer10_min        =   1.0694894080176578E-39
(PID.TID 0000.0001) %MON trcstat_ptracer10_mean       =   6.2489282400094983E-03
(PID.TID 0000.0001) %MON trcstat_ptracer10_sd         =   2.5468254552627193E-02
(PID.TID 0000.0001) %MON trcstat_ptracer10_del2       =   0.0000000000000000E+00
(PID.TID 0000.0001) %MON trcstat_ptracer11_max        =   1.5293046962729944E-04
(PID.TID 0000.0001) %MON trcstat_ptracer11_min        =   1.0694890713640137E-42
(PID.TID 0000.0001) %MON trcstat_ptracer11_mean       =   6.2489346675914612E-06
(PID.TID 0000.0001) %MON trcstat_ptracer11_sd         =   2.5468285401844279E-05
(PID.TID 0000.0001) %MON trcstat_ptracer11_del2       =   0.0000000000000000E+00
(PID.TID 0000.0001) %MON trcstat_ptracer12_max        =   2.3860907540114197E-03
(PID.TID 0000.0001) %MON trcstat_ptracer12_min        =   1.1505423582825901E-73
(PID.TID 0000.0001) %MON trcstat_ptracer12_mean       =   6.9201010518092450E-05
(PID.TID 0000.0001) %MON trcstat_ptracer12_sd         =   3.5645418942358866E-04
(PID.TID 0000.0001) %MON trcstat_ptracer12_del2       =   0.0000000000000000E+00
(PID.TID 0000.0001) %MON trcstat_ptracer13_max        =   4.2440257653323971E-01
(PID.TID 0000.0001) %MON trcstat_ptracer13_min        =   5.2124825542490874E-04
(PID.TID 0000.0001) %MON trcstat_ptracer13_mean       =   7.5681238763348202E-02
(PID.TID 0000.0001) %MON trcstat_ptracer13_sd         =   1.2302231845231708E-01
(PID.TID 0000.0001) %MON trcstat_ptracer13_del2       =   0.0000000000000000E+00
(PID.TID 0000.0001) %MON trcstat_ptracer14_max        =   2.6525160853756408E-02
(PID.TID 0000.0001) %MON trcstat_ptracer14_min        =   3.2578015964056796E-05
(PID.TID 0000.0001) %MON trcstat_ptracer14_mean       =   4.7300772556319462E-03
(PID.TID 0000.0001) %MON trcstat_ptracer14_sd         =   7.6888947578787614E-03
(PID.TID 0000.0001) %MON trcstat_ptracer14_del2       =   0.0000000000000000E+00
(PID.TID 0000.0001) %MON trcstat_ptracer15_max        =   1.7421122709541031E-04
(PID.TID 0000.0001) %MON trcstat_ptracer15_min        =   5.3884998041242096E-08
(PID.TID 0000.0001) %MON trcstat_ptracer15_mean       =   8.0119703657034695E-05
(PID.TID 0000.0001) %MON trcstat_ptracer15_sd         =   6.8122798845691808E-05
(PID.TID 0000.0001) %MON trcstat_ptracer15_del2       =   0.0000000000000000E+00
(PID.TID 0000.0001) %MON trcstat_ptracer16_max        =   2.6525162534637714E-05
(PID.TID 0000.0001) %MON trcstat_ptracer16_min        =   3.2578019060194276E-08
(PID.TID 0000.0001) %MON trcstat_ptracer16_mean       =   4.7300803814469646E-06
(PID.TID 0000.0001) %MON trcstat_ptracer16_sd         =   7.6888973556888826E-06
(PID.TID 0000.0001) %MON trcstat_ptracer16_del2       =   0.0000000000000000E+00
(PID.TID 0000.0001) %MON trcstat_ptracer17_max        =   6.2179859963319887E-06
(PID.TID 0000.0001) %MON trcstat_ptracer17_min        =   0.0000000000000000E+00
(PID.TID 0000.0001) %MON trcstat_ptracer17_mean       =   1.5024798777405927E-07
(PID.TID 0000.0001) %MON trcstat_ptracer17_sd         =   7.9895595914586109E-07
(PID.TID 0000.0001) %MON trcstat_ptracer17_del2       =   0.0000000000000000E+00
(PID.TID 0000.0001) %MON trcstat_ptracer18_max        =   2.3492329086986965E+03
(PID.TID 0000.0001) %MON trcstat_ptracer18_min        =   2.2743938641085883E+03
(PID.TID 0000.0001) %MON trcstat_ptracer18_mean       =   2.3217993574007119E+03
(PID.TID 0000.0001) %MON trcstat_ptracer18_sd         =   2.4949453278990049E+01
(PID.TID 0000.0001) %MON trcstat_ptracer18_del2       =   0.0000000000000000E+00
(PID.TID 0000.0001) %MON trcstat_ptracer19_max        =   3.0081137623107907E+02
(PID.TID 0000.0001) %MON trcstat_ptracer19_min        =   1.9389578983411462E+02
(PID.TID 0000.0001) %MON trcstat_ptracer19_mean       =   2.2311583441985985E+02
(PID.TID 0000.0001) %MON trcstat_ptracer19_sd         =   2.8041252681232184E+01
(PID.TID 0000.0001) %MON trcstat_ptracer19_del2       =   0.0000000000000000E+00
(PID.TID 0000.0001) %MON trcstat_ptracer20_max        =   6.6370809762655468E-04
(PID.TID 0000.0001) %MON trcstat_ptracer20_min        =   9.1196905435076994E-71
(PID.TID 0000.0001) %MON trcstat_ptracer20_mean       =   2.0476892938347543E-05
(PID.TID 0000.0001) %MON trcstat_ptracer20_sd         =   9.0157261370198336E-05
(PID.TID 0000.0001) %MON trcstat_ptracer20_del2       =   0.0000000000000000E+00
(PID.TID 0000.0001) %MON trcstat_ptracer21_max        =   6.6370373825466505E-04
(PID.TID 0000.0001) %MON trcstat_ptracer21_min        =   9.1196905435076994E-71
(PID.TID 0000.0001) %MON trcstat_ptracer21_mean       =   2.0480122922565929E-05
(PID.TID 0000.0001) %MON trcstat_ptracer21_sd         =   9.0183663636268172E-05
(PID.TID 0000.0001) %MON trcstat_ptracer21_del2       =   0.0000000000000000E+00
(PID.TID 0000.0001) %MON trcstat_ptracer22_max        =   6.6311723821370014E-04
(PID.TID 0000.0001) %MON trcstat_ptracer22_min        =   3.1409096159126834E-73
(PID.TID 0000.0001) %MON trcstat_ptracer22_mean       =   2.0466799628036373E-05
(PID.TID 0000.0001) %MON trcstat_ptracer22_sd         =   9.0119002711288478E-05
(PID.TID 0000.0001) %MON trcstat_ptracer22_del2       =   0.0000000000000000E+00
(PID.TID 0000.0001) %MON trcstat_ptracer23_max        =   6.6312178488784766E-04
(PID.TID 0000.0001) %MON trcstat_ptracer23_min        =   3.1409096159126834E-73
(PID.TID 0000.0001) %MON trcstat_ptracer23_mean       =   2.0466962204281472E-05
(PID.TID 0000.0001) %MON trcstat_ptracer23_sd         =   9.0120089129784199E-05
(PID.TID 0000.0001) %MON trcstat_ptracer23_del2       =   0.0000000000000000E+00
(PID.TID 0000.0001) %MON trcstat_ptracer24_max        =   6.6332806971519101E-04
(PID.TID 0000.0001) %MON trcstat_ptracer24_min        =   3.1409096159126834E-73
(PID.TID 0000.0001) %MON trcstat_ptracer24_mean       =   2.0474005473541485E-05
(PID.TID 0000.0001) %MON trcstat_ptracer24_sd         =   9.0167178758077669E-05
(PID.TID 0000.0001) %MON trcstat_ptracer24_del2       =   0.0000000000000000E+00
(PID.TID 0000.0001) %MON trcstat_ptracer25_max        =   6.6335334533466325E-05
(PID.TID 0000.0001) %MON trcstat_ptracer25_min        =   9.1196905435077030E-72
(PID.TID 0000.0001) %MON trcstat_ptracer25_mean       =   2.0467520356200821E-06
(PID.TID 0000.0001) %MON trcstat_ptracer25_sd         =   9.0099517031102396E-06
(PID.TID 0000.0001) %MON trcstat_ptracer25_del2       =   0.0000000000000000E+00
(PID.TID 0000.0001) %MON trcstat_ptracer26_max        =   6.6281874878559475E-05
(PID.TID 0000.0001) %MON trcstat_ptracer26_min        =   3.1409096159126846E-74
(PID.TID 0000.0001) %MON trcstat_ptracer26_mean       =   2.0456154136060739E-06
(PID.TID 0000.0001) %MON trcstat_ptracer26_sd         =   9.0047886594335295E-06
(PID.TID 0000.0001) %MON trcstat_ptracer26_del2       =   0.0000000000000000E+00
(PID.TID 0000.0001) %MON trcstat_ptracer27_max        =   6.6311723821370014E-04
(PID.TID 0000.0001) %MON trcstat_ptracer27_min        =   3.1409096159126834E-73
(PID.TID 0000.0001) %MON trcstat_ptracer27_mean       =   2.0466799628036373E-05
(PID.TID 0000.0001) %MON trcstat_ptracer27_sd         =   9.0119002711288478E-05
(PID.TID 0000.0001) %MON trcstat_ptracer27_del2       =   0.0000000000000000E+00
(PID.TID 0000.0001) %MON trcstat_ptracer28_max        =   6.6384632179424658E-04
(PID.TID 0000.0001) %MON trcstat_ptracer28_min        =   9.1196905435076994E-71
(PID.TID 0000.0001) %MON trcstat_ptracer28_mean       =   2.0480738257307263E-05
(PID.TID 0000.0001) %MON trcstat_ptracer28_sd         =   9.0183106374371768E-05
(PID.TID 0000.0001) %MON trcstat_ptracer28_del2       =   0.0000000000000000E+00
(PID.TID 0000.0001) %MON trcstat_ptracer29_max        =   2.8447372717465136E+00
(PID.TID 0000.0001) %MON trcstat_ptracer29_min        =   1.3787332593419702E-70
(PID.TID 0000.0001) %MON trcstat_ptracer29_mean       =   8.2574092498094984E-02
(PID.TID 0000.0001) %MON trcstat_ptracer29_sd         =   4.2525533859092668E-01
(PID.TID 0000.0001) %MON trcstat_ptracer29_del2       =   0.0000000000000000E+00
(PID.TID 0000.0001) %MON trcstat_ptracer30_max        =   2.8447361746372342E+00
(PID.TID 0000.0001) %MON trcstat_ptracer30_min        =   1.3787332593419702E-70
(PID.TID 0000.0001) %MON trcstat_ptracer30_mean       =   8.2574068709779527E-02
(PID.TID 0000.0001) %MON trcstat_ptracer30_sd         =   4.2525519691730740E-01
(PID.TID 0000.0001) %MON trcstat_ptracer30_del2       =   0.0000000000000000E+00
(PID.TID 0000.0001) %MON time_tsnumber                =                     2
(PID.TID 0000.0001) %MON time_secondsf                =   7.2000000000000000E+03
(PID.TID 0000.0001) %MON dynstat_eta_max              =   0.0000000000000000E+00
(PID.TID 0000.0001) %MON dynstat_eta_min              =   0.0000000000000000E+00
(PID.TID 0000.0001) %MON dynstat_eta_mean             =   0.0000000000000000E+00
(PID.TID 0000.0001) %MON dynstat_eta_sd               =   0.0000000000000000E+00
(PID.TID 0000.0001) %MON dynstat_eta_del2             =   0.0000000000000000E+00
(PID.TID 0000.0001) %MON dynstat_uvel_max             =   0.0000000000000000E+00
(PID.TID 0000.0001) %MON dynstat_uvel_min             =   0.0000000000000000E+00
(PID.TID 0000.0001) %MON dynstat_uvel_mean            =   0.0000000000000000E+00
(PID.TID 0000.0001) %MON dynstat_uvel_sd              =   0.0000000000000000E+00
(PID.TID 0000.0001) %MON dynstat_uvel_del2            =   0.0000000000000000E+00
(PID.TID 0000.0001) %MON dynstat_vvel_max             =   0.0000000000000000E+00
(PID.TID 0000.0001) %MON dynstat_vvel_min             =   0.0000000000000000E+00
(PID.TID 0000.0001) %MON dynstat_vvel_mean            =   0.0000000000000000E+00
(PID.TID 0000.0001) %MON dynstat_vvel_sd              =   0.0000000000000000E+00
(PID.TID 0000.0001) %MON dynstat_vvel_del2            =   0.0000000000000000E+00
(PID.TID 0000.0001) %MON dynstat_wvel_max             =   0.0000000000000000E+00
(PID.TID 0000.0001) %MON dynstat_wvel_min             =   0.0000000000000000E+00
(PID.TID 0000.0001) %MON dynstat_wvel_mean            =   0.0000000000000000E+00
(PID.TID 0000.0001) %MON dynstat_wvel_sd              =   0.0000000000000000E+00
(PID.TID 0000.0001) %MON dynstat_wvel_del2            =   0.0000000000000000E+00
(PID.TID 0000.0001) %MON dynstat_theta_max            =   8.2719359074106933E+00
(PID.TID 0000.0001) %MON dynstat_theta_min            =   1.5167012383938983E+00
(PID.TID 0000.0001) %MON dynstat_theta_mean           =   2.8238790423732119E+00
(PID.TID 0000.0001) %MON dynstat_theta_sd             =   1.3642220709211459E+00
(PID.TID 0000.0001) %MON dynstat_theta_del2           =   0.0000000000000000E+00
(PID.TID 0000.0001) %MON dynstat_salt_max             =   3.5000000000000000E+01
(PID.TID 0000.0001) %MON dynstat_salt_min             =   3.5000000000000000E+01
(PID.TID 0000.0001) %MON dynstat_salt_mean            =   3.4999999999999986E+01
(PID.TID 0000.0001) %MON dynstat_salt_sd              =   1.4210854715202004E-14
(PID.TID 0000.0001) %MON dynstat_salt_del2            =   0.0000000000000000E+00
(PID.TID 0000.0001) %MON dynstat_sst_max              =   8.2719359074106933E+00
(PID.TID 0000.0001) %MON dynstat_sst_min              =   8.2719359074106933E+00
(PID.TID 0000.0001) %MON dynstat_sst_mean             =   8.2719359074106933E+00
(PID.TID 0000.0001) %MON dynstat_sst_sd               =   0.0000000000000000E+00
(PID.TID 0000.0001) %MON dynstat_sst_del2             =   0.0000000000000000E+00
(PID.TID 0000.0001) %MON dynstat_sss_max              =   3.5000000000000000E+01
(PID.TID 0000.0001) %MON dynstat_sss_min              =   3.5000000000000000E+01
(PID.TID 0000.0001) %MON dynstat_sss_mean             =   3.5000000000000000E+01
(PID.TID 0000.0001) %MON dynstat_sss_sd               =   0.0000000000000000E+00
(PID.TID 0000.0001) %MON dynstat_sss_del2             =   0.0000000000000000E+00
(PID.TID 0000.0001) %MON forcing_qnet_max             =   0.0000000000000000E+00
(PID.TID 0000.0001) %MON forcing_qnet_min             =   0.0000000000000000E+00
(PID.TID 0000.0001) %MON forcing_qnet_mean            =   0.0000000000000000E+00
(PID.TID 0000.0001) %MON forcing_qnet_sd              =   0.0000000000000000E+00
(PID.TID 0000.0001) %MON forcing_qnet_del2            =   0.0000000000000000E+00
(PID.TID 0000.0001) %MON forcing_qsw_max              =   0.0000000000000000E+00
(PID.TID 0000.0001) %MON forcing_qsw_min              =   0.0000000000000000E+00
(PID.TID 0000.0001) %MON forcing_qsw_mean             =   0.0000000000000000E+00
(PID.TID 0000.0001) %MON forcing_qsw_sd               =   0.0000000000000000E+00
(PID.TID 0000.0001) %MON forcing_qsw_del2             =   0.0000000000000000E+00
(PID.TID 0000.0001) %MON forcing_empmr_max            =   0.0000000000000000E+00
(PID.TID 0000.0001) %MON forcing_empmr_min            =   0.0000000000000000E+00
(PID.TID 0000.0001) %MON forcing_empmr_mean           =   0.0000000000000000E+00
(PID.TID 0000.0001) %MON forcing_empmr_sd             =   0.0000000000000000E+00
(PID.TID 0000.0001) %MON forcing_empmr_del2           =   0.0000000000000000E+00
(PID.TID 0000.0001) %MON forcing_fu_max               =   2.2646569665935306E+00
(PID.TID 0000.0001) %MON forcing_fu_min               =   2.2646569665935306E+00
(PID.TID 0000.0001) %MON forcing_fu_mean              =   2.2646569665935306E+00
(PID.TID 0000.0001) %MON forcing_fu_sd                =   0.0000000000000000E+00
(PID.TID 0000.0001) %MON forcing_fu_del2              =   0.0000000000000000E+00
(PID.TID 0000.0001) %MON forcing_fv_max               =  -4.1312500250836215E-01
(PID.TID 0000.0001) %MON forcing_fv_min               =  -4.1312500250836215E-01
(PID.TID 0000.0001) %MON forcing_fv_mean              =  -4.1312500250836215E-01
(PID.TID 0000.0001) %MON forcing_fv_sd                =   0.0000000000000000E+00
(PID.TID 0000.0001) %MON forcing_fv_del2              =   0.0000000000000000E+00
(PID.TID 0000.0001) %MON advcfl_uvel_max              =   0.0000000000000000E+00
(PID.TID 0000.0001) %MON advcfl_vvel_max              =   0.0000000000000000E+00
(PID.TID 0000.0001) %MON advcfl_wvel_max              =   0.0000000000000000E+00
(PID.TID 0000.0001) %MON advcfl_W_hf_max              =   0.0000000000000000E+00
(PID.TID 0000.0001) %MON pe_b_mean                    =   0.0000000000000000E+00
(PID.TID 0000.0001) %MON ke_max                       =   0.0000000000000000E+00
(PID.TID 0000.0001) %MON ke_mean                      =   0.0000000000000000E+00
(PID.TID 0000.0001) %MON ke_vol                       =   3.0811817830111180E+13
(PID.TID 0000.0001) %MON vort_r_min                   =   0.0000000000000000E+00
(PID.TID 0000.0001) %MON vort_r_max                   =   0.0000000000000000E+00
(PID.TID 0000.0001) %MON vort_a_mean                  =  -1.0312619976227577E-04
(PID.TID 0000.0001) %MON vort_a_sd                    =   2.8760747774580336E-12
(PID.TID 0000.0001) %MON vort_p_mean                  =  -1.0312619976227577E-04
(PID.TID 0000.0001) %MON vort_p_sd                    =   2.8760747774580336E-12
(PID.TID 0000.0001) %MON surfExpan_theta_mean         =   0.0000000000000000E+00
(PID.TID 0000.0001) %MON surfExpan_salt_mean          =   0.0000000000000000E+00
(PID.TID 0000.0001) %MON trcstat_ptracer01_max        =   2.2367697729240635E+03
(PID.TID 0000.0001) %MON trcstat_ptracer01_min        =   2.0782893854918784E+03
(PID.TID 0000.0001) %MON trcstat_ptracer01_mean       =   2.2097557554453097E+03
(PID.TID 0000.0001) %MON trcstat_ptracer01_sd         =   3.8970825956725506E+01
(PID.TID 0000.0001) %MON trcstat_ptracer01_del2       =   0.0000000000000000E+00
(PID.TID 0000.0001) %MON trcstat_ptracer02_max        =   7.1356861767538360E-01
(PID.TID 0000.0001) %MON trcstat_ptracer02_min        =   4.7814815817962718E-06
(PID.TID 0000.0001) %MON trcstat_ptracer02_mean       =   1.8804892505165708E-02
(PID.TID 0000.0001) %MON trcstat_ptracer02_sd         =   1.0228774627668540E-01
(PID.TID 0000.0001) %MON trcstat_ptracer02_del2       =   0.0000000000000000E+00
(PID.TID 0000.0001) %MON trcstat_ptracer03_max        =   3.8142606871425500E-01
(PID.TID 0000.0001) %MON trcstat_ptracer03_min        =   1.1585290669139758E-04
(PID.TID 0000.0001) %MON trcstat_ptracer03_mean       =   2.8612420429512744E-02
(PID.TID 0000.0001) %MON trcstat_ptracer03_sd         =   7.1890095656273911E-02
(PID.TID 0000.0001) %MON trcstat_ptracer03_del2       =   0.0000000000000000E+00
(PID.TID 0000.0001) %MON trcstat_ptracer04_max        =   3.3950252037083310E+01
(PID.TID 0000.0001) %MON trcstat_ptracer04_min        =   1.6742094029298684E+01
(PID.TID 0000.0001) %MON trcstat_ptracer04_mean       =   3.0465849018640803E+01
(PID.TID 0000.0001) %MON trcstat_ptracer04_sd         =   3.3243315269460938E+00
(PID.TID 0000.0001) %MON trcstat_ptracer04_del2       =   0.0000000000000000E+00
(PID.TID 0000.0001) %MON trcstat_ptracer05_max        =   2.3152008839227718E+00
(PID.TID 0000.0001) %MON trcstat_ptracer05_min        =   1.0839761366945388E+00
(PID.TID 0000.0001) %MON trcstat_ptracer05_mean       =   2.0495084934380201E+00
(PID.TID 0000.0001) %MON trcstat_ptracer05_sd         =   2.5613911775927967E-01
(PID.TID 0000.0001) %MON trcstat_ptracer05_del2       =   0.0000000000000000E+00
(PID.TID 0000.0001) %MON trcstat_ptracer06_max        =   9.2368793802785220E+01
(PID.TID 0000.0001) %MON trcstat_ptracer06_min        =   4.4054107044257007E-01
(PID.TID 0000.0001) %MON trcstat_ptracer06_mean       =   6.0517938738519881E+01
(PID.TID 0000.0001) %MON trcstat_ptracer06_sd         =   2.7564392466863406E+01
(PID.TID 0000.0001) %MON trcstat_ptracer06_del2       =   0.0000000000000000E+00
(PID.TID 0000.0001) %MON trcstat_ptracer07_max        =   1.0542975723672910E-03
(PID.TID 0000.0001) %MON trcstat_ptracer07_min        =   1.0531623960761999E-03
(PID.TID 0000.0001) %MON trcstat_ptracer07_mean       =   1.0531809399814795E-03
(PID.TID 0000.0001) %MON trcstat_ptracer07_sd         =   6.0182869157987823E-08
(PID.TID 0000.0001) %MON trcstat_ptracer07_del2       =   0.0000000000000000E+00
(PID.TID 0000.0001) %MON trcstat_ptracer08_max        =   1.1121213098046402E-02
(PID.TID 0000.0001) %MON trcstat_ptracer08_min        =   6.4620390955046361E-72
(PID.TID 0000.0001) %MON trcstat_ptracer08_mean       =   3.2277949432593542E-04
(PID.TID 0000.0001) %MON trcstat_ptracer08_sd         =   1.6616944891274400E-03
(PID.TID 0000.0001) %MON trcstat_ptracer08_del2       =   0.0000000000000000E+00
(PID.TID 0000.0001) %MON trcstat_ptracer09_max        =   2.4469440049919347E+00
(PID.TID 0000.0001) %MON trcstat_ptracer09_min        =   1.0265009625401104E-37
(PID.TID 0000.0001) %MON trcstat_ptracer09_mean       =   9.9977970880301859E-02
(PID.TID 0000.0001) %MON trcstat_ptracer09_sd         =   4.0748774681673666E-01
(PID.TID 0000.0001) %MON trcstat_ptracer09_del2       =   0.0000000000000000E+00
(PID.TID 0000.0001) %MON trcstat_ptracer10_max        =   1.5293397380738841E-01
(PID.TID 0000.0001) %MON trcstat_ptracer10_min        =   6.4156310158756903E-39
(PID.TID 0000.0001) %MON trcstat_ptracer10_mean       =   6.2486225190064044E-03
(PID.TID 0000.0001) %MON trcstat_ptracer10_sd         =   2.5467980997639594E-02
(PID.TID 0000.0001) %MON trcstat_ptracer10_del2       =   0.0000000000000000E+00
(PID.TID 0000.0001) %MON trcstat_ptracer11_max        =   1.5293448355180054E-04
(PID.TID 0000.0001) %MON trcstat_ptracer11_min        =   6.4156289963652838E-42
(PID.TID 0000.0001) %MON trcstat_ptracer11_mean       =   6.2486353003917234E-06
(PID.TID 0000.0001) %MON trcstat_ptracer11_sd         =   2.5468042382717118E-05
(PID.TID 0000.0001) %MON trcstat_ptracer11_del2       =   0.0000000000000000E+00
(PID.TID 0000.0001) %MON trcstat_ptracer12_max        =   4.7679974881425016E-03
(PID.TID 0000.0001) %MON trcstat_ptracer12_min        =   7.3526174803706912E-69
(PID.TID 0000.0001) %MON trcstat_ptracer12_mean       =   1.3828461137690832E-04
(PID.TID 0000.0001) %MON trcstat_ptracer12_sd         =   7.1124646411019343E-04
(PID.TID 0000.0001) %MON trcstat_ptracer12_del2       =   0.0000000000000000E+00
(PID.TID 0000.0001) %MON trcstat_ptracer13_max        =   4.2400068124302215E-01
(PID.TID 0000.0001) %MON trcstat_ptracer13_min        =   5.2176820571871944E-04
(PID.TID 0000.0001) %MON trcstat_ptracer13_mean       =   7.5655590166107373E-02
(PID.TID 0000.0001) %MON trcstat_ptracer13_sd         =   1.2294927144538005E-01
(PID.TID 0000.0001) %MON trcstat_ptracer13_del2       =   0.0000000000000000E+00
(PID.TID 0000.0001) %MON trcstat_ptracer14_max        =   2.6500042218161639E-02
(PID.TID 0000.0001) %MON trcstat_ptracer14_min        =   3.2610512857419965E-05
(PID.TID 0000.0001) %MON trcstat_ptracer14_mean       =   4.7284740533221738E-03
(PID.TID 0000.0001) %MON trcstat_ptracer14_sd         =   7.6843291776644536E-03
(PID.TID 0000.0001) %MON trcstat_ptracer14_del2       =   0.0000000000000000E+00
(PID.TID 0000.0001) %MON trcstat_ptracer15_max        =   1.7433361842525752E-04
(PID.TID 0000.0001) %MON trcstat_ptracer15_min        =   5.9445954648914601E-08
(PID.TID 0000.0001) %MON trcstat_ptracer15_mean       =   8.0139124096988991E-05
(PID.TID 0000.0001) %MON trcstat_ptracer15_sd         =   6.8111330514152409E-05
(PID.TID 0000.0001) %MON trcstat_ptracer15_del2       =   0.0000000000000000E+00
(PID.TID 0000.0001) %MON trcstat_ptracer16_max        =   2.6500047378306523E-05
(PID.TID 0000.0001) %MON trcstat_ptracer16_min        =   3.2610515951725810E-08
(PID.TID 0000.0001) %MON trcstat_ptracer16_mean       =   4.7284803688406409E-06
(PID.TID 0000.0001) %MON trcstat_ptracer16_sd         =   7.6843345264925746E-06
(PID.TID 0000.0001) %MON trcstat_ptracer16_del2       =   0.0000000000000000E+00
(PID.TID 0000.0001) %MON trcstat_ptracer17_max        =   1.2349788733718423E-05
(PID.TID 0000.0001) %MON trcstat_ptracer17_min        =   2.7277084031121677E-71
(PID.TID 0000.0001) %MON trcstat_ptracer17_mean       =   2.9895903345216626E-07
(PID.TID 0000.0001) %MON trcstat_ptracer17_sd         =   1.5843061397954200E-06
(PID.TID 0000.0001) %MON trcstat_ptracer17_del2       =   0.0000000000000000E+00
(PID.TID 0000.0001) %MON trcstat_ptracer18_max        =   2.3492329072413422E+03
(PID.TID 0000.0001) %MON trcstat_ptracer18_min        =   2.2745013342186603E+03
(PID.TID 0000.0001) %MON trcstat_ptracer18_mean       =   2.3217992519247969E+03
(PID.TID 0000.0001) %MON trcstat_ptracer18_sd         =   2.4949613026616863E+01
(PID.TID 0000.0001) %MON trcstat_ptracer18_del2       =   0.0000000000000000E+00
(PID.TID 0000.0001) %MON trcstat_ptracer19_max        =   3.0080302516148936E+02
(PID.TID 0000.0001) %MON trcstat_ptracer19_min        =   1.9389572080055038E+02
(PID.TID 0000.0001) %MON trcstat_ptracer19_mean       =   2.2311505838752745E+02
(PID.TID 0000.0001) %MON trcstat_ptracer19_sd         =   2.8039635458997047E+01
(PID.TID 0000.0001) %MON trcstat_ptracer19_del2       =   0.0000000000000000E+00
(PID.TID 0000.0001) %MON trcstat_ptracer20_max        =   6.5618331776498746E-04
(PID.TID 0000.0001) %MON trcstat_ptracer20_min        =   1.2907494920346231E-67
(PID.TID 0000.0001) %MON trcstat_ptracer20_mean       =   2.0300578604689045E-05
(PID.TID 0000.0001) %MON trcstat_ptracer20_sd         =   8.9234083667466001E-05
(PID.TID 0000.0001) %MON trcstat_ptracer20_del2       =   0.0000000000000000E+00
(PID.TID 0000.0001) %MON trcstat_ptracer21_max        =   6.5617167867641334E-04
(PID.TID 0000.0001) %MON trcstat_ptracer21_min        =   1.2907494914212846E-67
(PID.TID 0000.0001) %MON trcstat_ptracer21_mean       =   2.0307024849632386E-05
(PID.TID 0000.0001) %MON trcstat_ptracer21_sd         =   8.9286845330146050E-05
(PID.TID 0000.0001) %MON trcstat_ptracer21_del2       =   0.0000000000000000E+00
(PID.TID 0000.0001) %MON trcstat_ptracer22_max        =   6.5502113378347138E-04
(PID.TID 0000.0001) %MON trcstat_ptracer22_min        =   3.7651584942932047E-72
(PID.TID 0000.0001) %MON trcstat_ptracer22_mean       =   2.0280740083855198E-05
(PID.TID 0000.0001) %MON trcstat_ptracer22_sd         =   8.9159938590312369E-05
(PID.TID 0000.0001) %MON trcstat_ptracer22_del2       =   0.0000000000000000E+00
(PID.TID 0000.0001) %MON trcstat_ptracer23_max        =   6.5502668002842307E-04
(PID.TID 0000.0001) %MON trcstat_ptracer23_min        =   3.7651584942932047E-72
(PID.TID 0000.0001) %MON trcstat_ptracer23_mean       =   2.0281001029655203E-05
(PID.TID 0000.0001) %MON trcstat_ptracer23_sd         =   8.9161684464229485E-05
(PID.TID 0000.0001) %MON trcstat_ptracer23_del2       =   0.0000000000000000E+00
(PID.TID 0000.0001) %MON trcstat_ptracer24_max        =   6.5543832556527065E-04
(PID.TID 0000.0001) %MON trcstat_ptracer24_min        =   3.7651584942932047E-72
(PID.TID 0000.0001) %MON trcstat_ptracer24_mean       =   2.0295022624359307E-05
(PID.TID 0000.0001) %MON trcstat_ptracer24_sd         =   8.9255590558584387E-05
(PID.TID 0000.0001) %MON trcstat_ptracer24_del2       =   0.0000000000000000E+00
(PID.TID 0000.0001) %MON trcstat_ptracer25_max        =   6.5548001173769716E-05
(PID.TID 0000.0001) %MON trcstat_ptracer25_min        =   1.2907495508573546E-68
(PID.TID 0000.0001) %MON trcstat_ptracer25_mean       =   2.0282061675523086E-06
(PID.TID 0000.0001) %MON trcstat_ptracer25_sd         =   8.9119955536897794E-06
(PID.TID 0000.0001) %MON trcstat_ptracer25_del2       =   0.0000000000000000E+00
(PID.TID 0000.0001) %MON trcstat_ptracer26_max        =   6.5442996698099421E-05
(PID.TID 0000.0001) %MON trcstat_ptracer26_min        =   3.7651789646505627E-73
(PID.TID 0000.0001) %MON trcstat_ptracer26_mean       =   2.0259623018603395E-06
(PID.TID 0000.0001) %MON trcstat_ptracer26_sd         =   8.9018661743310838E-06
(PID.TID 0000.0001) %MON trcstat_ptracer26_del2       =   0.0000000000000000E+00
(PID.TID 0000.0001) %MON trcstat_ptracer27_max        =   6.5502113378347138E-04
(PID.TID 0000.0001) %MON trcstat_ptracer27_min        =   3.7651584942932047E-72
(PID.TID 0000.0001) %MON trcstat_ptracer27_mean       =   2.0280740083855198E-05
(PID.TID 0000.0001) %MON trcstat_ptracer27_sd         =   8.9159938590312369E-05
(PID.TID 0000.0001) %MON trcstat_ptracer27_del2       =   0.0000000000000000E+00
(PID.TID 0000.0001) %MON trcstat_ptracer28_max        =   6.5645480158528220E-04
(PID.TID 0000.0001) %MON trcstat_ptracer28_min        =   1.2907494920346231E-67
(PID.TID 0000.0001) %MON trcstat_ptracer28_mean       =   2.0308261601646262E-05
(PID.TID 0000.0001) %MON trcstat_ptracer28_sd         =   8.9285699369098532E-05
(PID.TID 0000.0001) %MON trcstat_ptracer28_del2       =   0.0000000000000000E+00
(PID.TID 0000.0001) %MON trcstat_ptracer29_max        =   2.8405891979762696E+00
(PID.TID 0000.0001) %MON trcstat_ptracer29_min        =   1.6521798541945729E-69
(PID.TID 0000.0001) %MON trcstat_ptracer29_mean       =   8.2459618860642278E-02
(PID.TID 0000.0001) %MON trcstat_ptracer29_sd         =   4.2466352751536002E-01
(PID.TID 0000.0001) %MON trcstat_ptracer29_del2       =   0.0000000000000000E+00
(PID.TID 0000.0001) %MON trcstat_ptracer30_max        =   2.8405870300797806E+00
(PID.TID 0000.0001) %MON trcstat_ptracer30_min        =   1.6521798533550974E-69
(PID.TID 0000.0001) %MON trcstat_ptracer30_mean       =   8.2459571675244758E-02
(PID.TID 0000.0001) %MON trcstat_ptracer30_sd         =   4.2466324652408816E-01
(PID.TID 0000.0001) %MON trcstat_ptracer30_del2       =   0.0000000000000000E+00
(PID.TID 0000.0001) %MON time_tsnumber                =                     3
(PID.TID 0000.0001) %MON time_secondsf                =   1.0800000000000000E+04
(PID.TID 0000.0001) %MON dynstat_eta_max              =   0.0000000000000000E+00
(PID.TID 0000.0001) %MON dynstat_eta_min              =   0.0000000000000000E+00
(PID.TID 0000.0001) %MON dynstat_eta_mean             =   0.0000000000000000E+00
(PID.TID 0000.0001) %MON dynstat_eta_sd               =   0.0000000000000000E+00
(PID.TID 0000.0001) %MON dynstat_eta_del2             =   0.0000000000000000E+00
(PID.TID 0000.0001) %MON dynstat_uvel_max             =   0.0000000000000000E+00
(PID.TID 0000.0001) %MON dynstat_uvel_min             =   0.0000000000000000E+00
(PID.TID 0000.0001) %MON dynstat_uvel_mean            =   0.0000000000000000E+00
(PID.TID 0000.0001) %MON dynstat_uvel_sd              =   0.0000000000000000E+00
(PID.TID 0000.0001) %MON dynstat_uvel_del2            =   0.0000000000000000E+00
(PID.TID 0000.0001) %MON dynstat_vvel_max             =   0.0000000000000000E+00
(PID.TID 0000.0001) %MON dynstat_vvel_min             =   0.0000000000000000E+00
(PID.TID 0000.0001) %MON dynstat_vvel_mean            =   0.0000000000000000E+00
(PID.TID 0000.0001) %MON dynstat_vvel_sd              =   0.0000000000000000E+00
(PID.TID 0000.0001) %MON dynstat_vvel_del2            =   0.0000000000000000E+00
(PID.TID 0000.0001) %MON dynstat_wvel_max             =   0.0000000000000000E+00
(PID.TID 0000.0001) %MON dynstat_wvel_min             =   0.0000000000000000E+00
(PID.TID 0000.0001) %MON dynstat_wvel_mean            =   0.0000000000000000E+00
(PID.TID 0000.0001) %MON dynstat_wvel_sd              =   0.0000000000000000E+00
(PID.TID 0000.0001) %MON dynstat_wvel_del2            =   0.0000000000000000E+00
(PID.TID 0000.0001) %MON dynstat_theta_max            =   8.2616915570573877E+00
(PID.TID 0000.0001) %MON dynstat_theta_min            =   1.5167018429027368E+00
(PID.TID 0000.0001) %MON dynstat_theta_mean           =   2.8238551634290574E+00
(PID.TID 0000.0001) %MON dynstat_theta_sd             =   1.3641186209026439E+00
(PID.TID 0000.0001) %MON dynstat_theta_del2           =   0.0000000000000000E+00
(PID.TID 0000.0001) %MON dynstat_salt_max             =   3.5000000000000000E+01
(PID.TID 0000.0001) %MON dynstat_salt_min             =   3.5000000000000000E+01
(PID.TID 0000.0001) %MON dynstat_salt_mean            =   3.4999999999999986E+01
(PID.TID 0000.0001) %MON dynstat_salt_sd              =   1.4210854715202004E-14
(PID.TID 0000.0001) %MON dynstat_salt_del2            =   0.0000000000000000E+00
(PID.TID 0000.0001) %MON dynstat_sst_max              =   8.2616915570573877E+00
(PID.TID 0000.0001) %MON dynstat_sst_min              =   8.2616915570573877E+00
(PID.TID 0000.0001) %MON dynstat_sst_mean             =   8.2616915570573877E+00
(PID.TID 0000.0001) %MON dynstat_sst_sd               =   0.0000000000000000E+00
(PID.TID 0000.0001) %MON dynstat_sst_del2             =   0.0000000000000000E+00
(PID.TID 0000.0001) %MON dynstat_sss_max              =   3.5000000000000000E+01
(PID.TID 0000.0001) %MON dynstat_sss_min              =   3.5000000000000000E+01
(PID.TID 0000.0001) %MON dynstat_sss_mean             =   3.5000000000000000E+01
(PID.TID 0000.0001) %MON dynstat_sss_sd               =   0.0000000000000000E+00
(PID.TID 0000.0001) %MON dynstat_sss_del2             =   0.0000000000000000E+00
(PID.TID 0000.0001) %MON forcing_qnet_max             =   0.0000000000000000E+00
(PID.TID 0000.0001) %MON forcing_qnet_min             =   0.0000000000000000E+00
(PID.TID 0000.0001) %MON forcing_qnet_mean            =   0.0000000000000000E+00
(PID.TID 0000.0001) %MON forcing_qnet_sd              =   0.0000000000000000E+00
(PID.TID 0000.0001) %MON forcing_qnet_del2            =   0.0000000000000000E+00
(PID.TID 0000.0001) %MON forcing_qsw_max              =   0.0000000000000000E+00
(PID.TID 0000.0001) %MON forcing_qsw_min              =   0.0000000000000000E+00
(PID.TID 0000.0001) %MON forcing_qsw_mean             =   0.0000000000000000E+00
(PID.TID 0000.0001) %MON forcing_qsw_sd               =   0.0000000000000000E+00
(PID.TID 0000.0001) %MON forcing_qsw_del2             =   0.0000000000000000E+00
(PID.TID 0000.0001) %MON forcing_empmr_max            =   0.0000000000000000E+00
(PID.TID 0000.0001) %MON forcing_empmr_min            =   0.0000000000000000E+00
(PID.TID 0000.0001) %MON forcing_empmr_mean           =   0.0000000000000000E+00
(PID.TID 0000.0001) %MON forcing_empmr_sd             =   0.0000000000000000E+00
(PID.TID 0000.0001) %MON forcing_empmr_del2           =   0.0000000000000000E+00
(PID.TID 0000.0001) %MON forcing_fu_max               =   2.2648139112525518E+00
(PID.TID 0000.0001) %MON forcing_fu_min               =   2.2648139112525518E+00
(PID.TID 0000.0001) %MON forcing_fu_mean              =   2.2648139112525518E+00
(PID.TID 0000.0001) %MON forcing_fu_sd                =   0.0000000000000000E+00
(PID.TID 0000.0001) %MON forcing_fu_del2              =   0.0000000000000000E+00
(PID.TID 0000.0001) %MON forcing_fv_max               =  -4.1325000251332922E-01
(PID.TID 0000.0001) %MON forcing_fv_min               =  -4.1325000251332922E-01
(PID.TID 0000.0001) %MON forcing_fv_mean              =  -4.1325000251332922E-01
(PID.TID 0000.0001) %MON forcing_fv_sd                =   0.0000000000000000E+00
(PID.TID 0000.0001) %MON forcing_fv_del2              =   0.0000000000000000E+00
(PID.TID 0000.0001) %MON advcfl_uvel_max              =   0.0000000000000000E+00
(PID.TID 0000.0001) %MON advcfl_vvel_max              =   0.0000000000000000E+00
(PID.TID 0000.0001) %MON advcfl_wvel_max              =   0.0000000000000000E+00
(PID.TID 0000.0001) %MON advcfl_W_hf_max              =   0.0000000000000000E+00
(PID.TID 0000.0001) %MON pe_b_mean                    =   0.0000000000000000E+00
(PID.TID 0000.0001) %MON ke_max                       =   0.0000000000000000E+00
(PID.TID 0000.0001) %MON ke_mean                      =   0.0000000000000000E+00
(PID.TID 0000.0001) %MON ke_vol                       =   3.0811817830111180E+13
(PID.TID 0000.0001) %MON vort_r_min                   =   0.0000000000000000E+00
(PID.TID 0000.0001) %MON vort_r_max                   =   0.0000000000000000E+00
(PID.TID 0000.0001) %MON vort_a_mean                  =  -1.0312619976227577E-04
(PID.TID 0000.0001) %MON vort_a_sd                    =   2.8760747774580336E-12
(PID.TID 0000.0001) %MON vort_p_mean                  =  -1.0312619976227577E-04
(PID.TID 0000.0001) %MON vort_p_sd                    =   2.8760747774580336E-12
(PID.TID 0000.0001) %MON surfExpan_theta_mean         =   0.0000000000000000E+00
(PID.TID 0000.0001) %MON surfExpan_salt_mean          =   0.0000000000000000E+00
(PID.TID 0000.0001) %MON trcstat_ptracer01_max        =   2.2367697716907837E+03
(PID.TID 0000.0001) %MON trcstat_ptracer01_min        =   2.0785675911761004E+03
(PID.TID 0000.0001) %MON trcstat_ptracer01_mean       =   2.2097557100731115E+03
(PID.TID 0000.0001) %MON trcstat_ptracer01_sd         =   3.8970728652561512E+01
(PID.TID 0000.0001) %MON trcstat_ptracer01_del2       =   0.0000000000000000E+00
(PID.TID 0000.0001) %MON trcstat_ptracer02_max        =   6.9365790919042847E-01
(PID.TID 0000.0001) %MON trcstat_ptracer02_min        =   4.5872349535736615E-06
(PID.TID 0000.0001) %MON trcstat_ptracer02_mean       =   1.7751428855090099E-02
(PID.TID 0000.0001) %MON trcstat_ptracer02_sd         =   9.6791693252747835E-02
(PID.TID 0000.0001) %MON trcstat_ptracer02_del2       =   0.0000000000000000E+00
(PID.TID 0000.0001) %MON trcstat_ptracer03_max        =   4.1906164210554087E-01
(PID.TID 0000.0001) %MON trcstat_ptracer03_min        =   1.1576865154077141E-04
(PID.TID 0000.0001) %MON trcstat_ptracer03_mean       =   2.9618048905106532E-02
(PID.TID 0000.0001) %MON trcstat_ptracer03_sd         =   7.6329738657797630E-02
(PID.TID 0000.0001) %MON trcstat_ptracer03_del2       =   0.0000000000000000E+00
(PID.TID 0000.0001) %MON trcstat_ptracer04_max        =   3.3950278549374261E+01
(PID.TID 0000.0001) %MON trcstat_ptracer04_min        =   1.6801494838998394E+01
(PID.TID 0000.0001) %MON trcstat_ptracer04_mean       =   3.0465958081119108E+01
(PID.TID 0000.0001) %MON trcstat_ptracer04_sd         =   3.3241092220270367E+00
(PID.TID 0000.0001) %MON trcstat_ptracer04_del2       =   0.0000000000000000E+00
(PID.TID 0000.0001) %MON trcstat_ptracer05_max        =   2.3152012815892515E+00
(PID.TID 0000.0001) %MON trcstat_ptracer05_min        =   1.0857404625375695E+00
(PID.TID 0000.0001) %MON trcstat_ptracer05_mean       =   2.0495123201333976E+00
(PID.TID 0000.0001) %MON trcstat_ptracer05_sd         =   2.5613074729667129E-01
(PID.TID 0000.0001) %MON trcstat_ptracer05_del2       =   0.0000000000000000E+00
(PID.TID 0000.0001) %MON trcstat_ptracer06_max        =   9.2368792053067324E+01
(PID.TID 0000.0001) %MON trcstat_ptracer06_min        =   4.7138623868647511E-01
(PID.TID 0000.0001) %MON trcstat_ptracer06_mean       =   6.0517938742630669E+01
(PID.TID 0000.0001) %MON trcstat_ptracer06_sd         =   2.7564390421732657E+01
(PID.TID 0000.0001) %MON trcstat_ptracer06_del2       =   0.0000000000000000E+00
(PID.TID 0000.0001) %MON trcstat_ptracer07_max        =   1.0536119264006885E-03
(PID.TID 0000.0001) %MON trcstat_ptracer07_min        =   1.0524370994667853E-03
(PID.TID 0000.0001) %MON trcstat_ptracer07_mean       =   1.0524566328844207E-03
(PID.TID 0000.0001) %MON trcstat_ptracer07_sd         =   6.2307501610514132E-08
(PID.TID 0000.0001) %MON trcstat_ptracer07_del2       =   0.0000000000000000E+00
(PID.TID 0000.0001) %MON trcstat_ptracer08_max        =   1.6668154103286755E-02
(PID.TID 0000.0001) %MON trcstat_ptracer08_min        =   6.3322765041947296E-71
(PID.TID 0000.0001) %MON trcstat_ptracer08_mean       =   4.8379193500549969E-04
(PID.TID 0000.0001) %MON trcstat_ptracer08_sd         =   2.4905793290532171E-03
(PID.TID 0000.0001) %MON trcstat_ptracer08_del2       =   0.0000000000000000E+00
(PID.TID 0000.0001) %MON trcstat_ptracer09_max        =   2.4470032218959576E+00
(PID.TID 0000.0001) %MON trcstat_ptracer09_min        =   3.5920224755645553E-37
(PID.TID 0000.0001) %MON trcstat_ptracer09_mean       =   9.9973055989910062E-02
(PID.TID 0000.0001) %MON trcstat_ptracer09_sd         =   4.0748324998939039E-01
(PID.TID 0000.0001) %MON trcstat_ptracer09_del2       =   0.0000000000000000E+00
(PID.TID 0000.0001) %MON trcstat_ptracer10_max        =   1.5293766187734414E-01
(PID.TID 0000.0001) %MON trcstat_ptracer10_min        =   2.2450140472278470E-38
(PID.TID 0000.0001) %MON trcstat_ptracer10_mean       =   6.2483150133887458E-03
(PID.TID 0000.0001) %MON trcstat_ptracer10_sd         =   2.5467698385769146E-02
(PID.TID 0000.0001) %MON trcstat_ptracer10_del2       =   0.0000000000000000E+00
(PID.TID 0000.0001) %MON trcstat_ptracer11_max        =   1.5293842269555687E-04
(PID.TID 0000.0001) %MON trcstat_ptracer11_min        =   2.2450133405431862E-41
(PID.TID 0000.0001) %MON trcstat_ptracer11_mean       =   6.2483340774922030E-06
(PID.TID 0000.0001) %MON trcstat_ptracer11_sd         =   2.5467789934005979E-05
(PID.TID 0000.0001) %MON trcstat_ptracer11_del2       =   0.0000000000000000E+00
(PID.TID 0000.0001) %MON trcstat_ptracer12_max        =   7.1430883875334902E-03
(PID.TID 0000.0001) %MON trcstat_ptracer12_min        =   1.3414485035098200E-64
(PID.TID 0000.0001) %MON trcstat_ptracer12_mean       =   2.0725101061521098E-04
(PID.TID 0000.0001) %MON trcstat_ptracer12_sd         =   1.0643975567210711E-03
(PID.TID 0000.0001) %MON trcstat_ptracer12_del2       =   0.0000000000000000E+00
(PID.TID 0000.0001) %MON trcstat_ptracer13_max        =   4.2359786960594559E-01
(PID.TID 0000.0001) %MON trcstat_ptracer13_min        =   5.2228832241671462E-04
(PID.TID 0000.0001) %MON trcstat_ptracer13_mean       =   7.5629944531995702E-02
(PID.TID 0000.0001) %MON trcstat_ptracer13_sd         =   1.2287606172725515E-01
(PID.TID 0000.0001) %MON trcstat_ptracer13_del2       =   0.0000000000000000E+00
(PID.TID 0000.0001) %MON trcstat_ptracer14_max        =   2.6474866310494331E-02
(PID.TID 0000.0001) %MON trcstat_ptracer14_min        =   3.2643020151044664E-05
(PID.TID 0000.0001) %MON trcstat_ptracer14_mean       =   4.7268710382757598E-03
(PID.TID 0000.0001) %MON trcstat_ptracer14_sd         =   7.6797534311169955E-03
(PID.TID 0000.0001) %MON trcstat_ptracer14_del2       =   0.0000000000000000E+00
(PID.TID 0000.0001) %MON trcstat_ptracer15_max        =   1.7445597046884280E-04
(PID.TID 0000.0001) %MON trcstat_ptracer15_min        =   6.5081625262422523E-08
(PID.TID 0000.0001) %MON trcstat_ptracer15_mean       =   8.0158287023598750E-05
(PID.TID 0000.0001) %MON trcstat_ptracer15_sd         =   6.8100440794796607E-05
(PID.TID 0000.0001) %MON trcstat_ptracer15_del2       =   0.0000000000000000E+00
(PID.TID 0000.0001) %MON trcstat_ptracer16_max        =   2.6474874958515031E-05
(PID.TID 0000.0001) %MON trcstat_ptracer16_min        =   3.2643023243516103E-08
(PID.TID 0000.0001) %MON trcstat_ptracer16_mean       =   4.7268805035204371E-06
(PID.TID 0000.0001) %MON trcstat_ptracer16_sd         =   7.6797614707409039E-06
(PID.TID 0000.0001) %MON trcstat_ptracer16_del2       =   0.0000000000000000E+00
(PID.TID 0000.0001) %MON trcstat_ptracer17_max        =   1.8389473882265432E-05
(PID.TID 0000.0001) %MON trcstat_ptracer17_min        =   1.1220778266837499E-66
(PID.TID 0000.0001) %MON trcstat_ptracer17_mean       =   4.4615064602908337E-07
(PID.TID 0000.0001) %MON trcstat_ptracer17_sd         =   2.3561933270655964E-06
(PID.TID 0000.0001) %MON trcstat_ptracer17_del2       =   0.0000000000000000E+00
(PID.TID 0000.0001) %MON trcstat_ptracer18_max        =   2.3492329057842667E+03
(PID.TID 0000.0001) %MON trcstat_ptracer18_min        =   2.2745305238967894E+03
(PID.TID 0000.0001) %MON trcstat_ptracer18_mean       =   2.3217991428411597E+03
(PID.TID 0000.0001) %MON trcstat_ptracer18_sd         =   2.4949784420835961E+01
(PID.TID 0000.0001) %MON trcstat_ptracer18_del2       =   0.0000000000000000E+00
(PID.TID 0000.0001) %MON trcstat_ptracer19_max        =   3.0079461436046086E+02
(PID.TID 0000.0001) %MON trcstat_ptracer19_min        =   1.9389565166392870E+02
(PID.TID 0000.0001) %MON trcstat_ptracer19_mean       =   2.2311428265515136E+02
(PID.TID 0000.0001) %MON trcstat_ptracer19_sd         =   2.8038017819305036E+01
(PID.TID 0000.0001) %MON trcstat_ptracer19_del2       =   0.0000000000000000E+00
(PID.TID 0000.0001) %MON trcstat_ptracer20_max        =   6.4873872844752707E-04
(PID.TID 0000.0001) %MON trcstat_ptracer20_min        =   7.9365185532022449E-65
(PID.TID 0000.0001) %MON trcstat_ptracer20_mean       =   2.0126025765282011E-05
(PID.TID 0000.0001) %MON trcstat_ptracer20_sd         =   8.8320713806774737E-05
(PID.TID 0000.0001) %MON trcstat_ptracer20_del2       =   0.0000000000000000E+00
(PID.TID 0000.0001) %MON trcstat_ptracer21_max        =   6.4871783855701326E-04
(PID.TID 0000.0001) %MON trcstat_ptracer21_min        =   7.9365185445152697E-65
(PID.TID 0000.0001) %MON trcstat_ptracer21_mean       =   2.0135631303471792E-05
(PID.TID 0000.0001) %MON trcstat_ptracer21_sd         =   8.8399499497857591E-05
(PID.TID 0000.0001) %MON trcstat_ptracer21_del2       =   0.0000000000000000E+00
(PID.TID 0000.0001) %MON trcstat_ptracer22_max        =   6.4703071973115753E-04
(PID.TID 0000.0001) %MON trcstat_ptracer22_min        =   2.4447993725381391E-71
(PID.TID 0000.0001) %MON trcstat_ptracer22_mean       =   2.0096741147961690E-05
(PID.TID 0000.0001) %MON trcstat_ptracer22_sd         =   8.8212469581907526E-05
(PID.TID 0000.0001) %MON trcstat_ptracer22_del2       =   0.0000000000000000E+00
(PID.TID 0000.0001) %MON trcstat_ptracer23_max        =   6.4703316117846303E-04
(PID.TID 0000.0001) %MON trcstat_ptracer23_min        =   2.4447993725381391E-71
(PID.TID 0000.0001) %MON trcstat_ptracer23_mean       =   2.0097027313545046E-05
(PID.TID 0000.0001) %MON trcstat_ptracer23_sd         =   8.8214388319210804E-05
(PID.TID 0000.0001) %MON trcstat_ptracer23_del2       =   0.0000000000000000E+00
(PID.TID 0000.0001) %MON trcstat_ptracer24_max        =   6.4764998289425484E-04
(PID.TID 0000.0001) %MON trcstat_ptracer24_min        =   2.4447993725381391E-71
(PID.TID 0000.0001) %MON trcstat_ptracer24_mean       =   2.0117971849317250E-05
(PID.TID 0000.0001) %MON trcstat_ptracer24_sd         =   8.8354858523462840E-05
(PID.TID 0000.0001) %MON trcstat_ptracer24_del2       =   0.0000000000000000E+00
(PID.TID 0000.0001) %MON trcstat_ptracer25_max        =   6.4769495009490106E-05
[...]
(PID.TID 0000.0001) %MON trcstat_ptracer28_mean       =   2.0137496227525519E-05
(PID.TID 0000.0001) %MON trcstat_ptracer28_sd         =   8.8397766303444664E-05
(PID.TID 0000.0001) %MON trcstat_ptracer28_del2       =   0.0000000000000000E+00
(PID.TID 0000.0001) %MON trcstat_ptracer29_max        =   2.8365876251360445E+00
(PID.TID 0000.0001) %MON trcstat_ptracer29_min        =   1.0724239465749186E-68
(PID.TID 0000.0001) %MON trcstat_ptracer29_mean       =   8.2345301635722290E-02
(PID.TID 0000.0001) %MON trcstat_ptracer29_sd         =   4.2407252702569909E-01
(PID.TID 0000.0001) %MON trcstat_ptracer29_del2       =   0.0000000000000000E+00
(PID.TID 0000.0001) %MON trcstat_ptracer30_max        =   2.8365843889476370E+00
(PID.TID 0000.0001) %MON trcstat_ptracer30_min        =   1.0724239454858229E-68
(PID.TID 0000.0001) %MON trcstat_ptracer30_mean       =   8.2345231437539121E-02
(PID.TID 0000.0001) %MON trcstat_ptracer30_sd         =   4.2407210903023729E-01
(PID.TID 0000.0001) %MON trcstat_ptracer30_del2       =   0.0000000000000000E+00
(PID.TID 0000.0001) %MON time_tsnumber                =                     4
(PID.TID 0000.0001) %MON time_secondsf                =   1.4400000000000000E+04
(PID.TID 0000.0001) %MON dynstat_eta_max              =   0.0000000000000000E+00
(PID.TID 0000.0001) %MON dynstat_eta_min              =   0.0000000000000000E+00
(PID.TID 0000.0001) %MON dynstat_eta_mean             =   0.0000000000000000E+00
(PID.TID 0000.0001) %MON dynstat_eta_sd               =   0.0000000000000000E+00
(PID.TID 0000.0001) %MON dynstat_eta_del2             =   0.0000000000000000E+00
(PID.TID 0000.0001) %MON dynstat_uvel_max             =   0.0000000000000000E+00
(PID.TID 0000.0001) %MON dynstat_uvel_min             =   0.0000000000000000E+00
(PID.TID 0000.0001) %MON dynstat_uvel_mean            =   0.0000000000000000E+00
(PID.TID 0000.0001) %MON dynstat_uvel_sd              =   0.0000000000000000E+00
(PID.TID 0000.0001) %MON dynstat_uvel_del2            =   0.0000000000000000E+00
(PID.TID 0000.0001) %MON dynstat_vvel_max             =   0.0000000000000000E+00
(PID.TID 0000.0001) %MON dynstat_vvel_min             =   0.0000000000000000E+00
(PID.TID 0000.0001) %MON dynstat_vvel_mean            =   0.0000000000000000E+00
(PID.TID 0000.0001) %MON dynstat_vvel_sd              =   0.0000000000000000E+00
(PID.TID 0000.0001) %MON dynstat_vvel_del2            =   0.0000000000000000E+00
(PID.TID 0000.0001) %MON dynstat_wvel_max             =   0.0000000000000000E+00
(PID.TID 0000.0001) %MON dynstat_wvel_min             =   0.0000000000000000E+00
(PID.TID 0000.0001) %MON dynstat_wvel_mean            =   0.0000000000000000E+00
(PID.TID 0000.0001) %MON dynstat_wvel_sd              =   0.0000000000000000E+00
(PID.TID 0000.0001) %MON dynstat_wvel_del2            =   0.0000000000000000E+00
(PID.TID 0000.0001) %MON dynstat_theta_max            =   8.2508948224563863E+00
(PID.TID 0000.0001) %MON dynstat_theta_min            =   1.5167024474105579E+00
(PID.TID 0000.0001) %MON dynstat_theta_mean           =   2.8238325601456404E+00
(PID.TID 0000.0001) %MON dynstat_theta_sd             =   1.3640210027633008E+00
(PID.TID 0000.0001) %MON dynstat_theta_del2           =   0.0000000000000000E+00
(PID.TID 0000.0001) %MON dynstat_salt_max             =   3.5000000000000000E+01
(PID.TID 0000.0001) %MON dynstat_salt_min             =   3.5000000000000000E+01
(PID.TID 0000.0001) %MON dynstat_salt_mean            =   3.4999999999999986E+01
(PID.TID 0000.0001) %MON dynstat_salt_sd              =   1.4210854715202004E-14
(PID.TID 0000.0001) %MON dynstat_salt_del2            =   0.0000000000000000E+00
(PID.TID 0000.0001) %MON dynstat_sst_max              =   8.2508948224563863E+00
(PID.TID 0000.0001) %MON dynstat_sst_min              =   8.2508948224563863E+00
(PID.TID 0000.0001) %MON dynstat_sst_mean             =   8.2508948224563863E+00
(PID.TID 0000.0001) %MON dynstat_sst_sd               =   0.0000000000000000E+00
(PID.TID 0000.0001) %MON dynstat_sst_del2             =   0.0000000000000000E+00
(PID.TID 0000.0001) %MON dynstat_sss_max              =   3.5000000000000000E+01
(PID.TID 0000.0001) %MON dynstat_sss_min              =   3.5000000000000000E+01
(PID.TID 0000.0001) %MON dynstat_sss_mean             =   3.5000000000000000E+01
(PID.TID 0000.0001) %MON dynstat_sss_sd               =   0.0000000000000000E+00
(PID.TID 0000.0001) %MON dynstat_sss_del2             =   0.0000000000000000E+00
(PID.TID 0000.0001) %MON forcing_qnet_max             =   0.0000000000000000E+00
(PID.TID 0000.0001) %MON forcing_qnet_min             =   0.0000000000000000E+00
(PID.TID 0000.0001) %MON forcing_qnet_mean            =   0.0000000000000000E+00
(PID.TID 0000.0001) %MON forcing_qnet_sd              =   0.0000000000000000E+00
(PID.TID 0000.0001) %MON forcing_qnet_del2            =   0.0000000000000000E+00
(PID.TID 0000.0001) %MON forcing_qsw_max              =   0.0000000000000000E+00
(PID.TID 0000.0001) %MON forcing_qsw_min              =   0.0000000000000000E+00
(PID.TID 0000.0001) %MON forcing_qsw_mean             =   0.0000000000000000E+00
(PID.TID 0000.0001) %MON forcing_qsw_sd               =   0.0000000000000000E+00
(PID.TID 0000.0001) %MON forcing_qsw_del2             =   0.0000000000000000E+00
(PID.TID 0000.0001) %MON forcing_empmr_max            =   0.0000000000000000E+00
(PID.TID 0000.0001) %MON forcing_empmr_min            =   0.0000000000000000E+00
(PID.TID 0000.0001) %MON forcing_empmr_mean           =   0.0000000000000000E+00
(PID.TID 0000.0001) %MON forcing_empmr_sd             =   0.0000000000000000E+00
(PID.TID 0000.0001) %MON forcing_empmr_del2           =   0.0000000000000000E+00
(PID.TID 0000.0001) %MON forcing_fu_max               =   2.2649708559115727E+00
(PID.TID 0000.0001) %MON forcing_fu_min               =   2.2649708559115727E+00
(PID.TID 0000.0001) %MON forcing_fu_mean              =   2.2649708559115727E+00
(PID.TID 0000.0001) %MON forcing_fu_sd                =   0.0000000000000000E+00
(PID.TID 0000.0001) %MON forcing_fu_del2              =   0.0000000000000000E+00
(PID.TID 0000.0001) %MON forcing_fv_max               =  -4.1337500251829623E-01
(PID.TID 0000.0001) %MON forcing_fv_min               =  -4.1337500251829623E-01
(PID.TID 0000.0001) %MON forcing_fv_mean              =  -4.1337500251829623E-01
(PID.TID 0000.0001) %MON forcing_fv_sd                =   0.0000000000000000E+00
(PID.TID 0000.0001) %MON forcing_fv_del2              =   0.0000000000000000E+00
(PID.TID 0000.0001) %MON advcfl_uvel_max              =   0.0000000000000000E+00
(PID.TID 0000.0001) %MON advcfl_vvel_max              =   0.0000000000000000E+00
(PID.TID 0000.0001) %MON advcfl_wvel_max              =   0.0000000000000000E+00
(PID.TID 0000.0001) %MON advcfl_W_hf_max              =   0.0000000000000000E+00
(PID.TID 0000.0001) %MON pe_b_mean                    =   0.0000000000000000E+00
(PID.TID 0000.0001) %MON ke_max                       =   0.0000000000000000E+00
(PID.TID 0000.0001) %MON ke_mean                      =   0.0000000000000000E+00
(PID.TID 0000.0001) %MON ke_vol                       =   3.0811817830111180E+13
(PID.TID 0000.0001) %MON vort_r_min                   =   0.0000000000000000E+00
(PID.TID 0000.0001) %MON vort_r_max                   =   0.0000000000000000E+00
(PID.TID 0000.0001) %MON vort_a_mean                  =  -1.0312619976227577E-04
(PID.TID 0000.0001) %MON vort_a_sd                    =   2.8760747774580336E-12
(PID.TID 0000.0001) %MON vort_p_mean                  =  -1.0312619976227577E-04
(PID.TID 0000.0001) %MON vort_p_sd                    =   2.8760747774580336E-12
(PID.TID 0000.0001) %MON surfExpan_theta_mean         =   0.0000000000000000E+00
(PID.TID 0000.0001) %MON surfExpan_salt_mean          =   0.0000000000000000E+00
(PID.TID 0000.0001) %MON trcstat_ptracer01_max        =   2.2367697704575039E+03
(PID.TID 0000.0001) %MON trcstat_ptracer01_min        =   2.0789023930181888E+03
(PID.TID 0000.0001) %MON trcstat_ptracer01_mean       =   2.2097556641917886E+03
(PID.TID 0000.0001) %MON trcstat_ptracer01_sd         =   3.8970681568182620E+01
(PID.TID 0000.0001) %MON trcstat_ptracer01_del2       =   0.0000000000000000E+00
(PID.TID 0000.0001) %MON trcstat_ptracer02_max        =   6.7100308226667726E-01
(PID.TID 0000.0001) %MON trcstat_ptracer02_min        =   4.4093790984960410E-06
(PID.TID 0000.0001) %MON trcstat_ptracer02_mean       =   1.6767600283208842E-02
(PID.TID 0000.0001) %MON trcstat_ptracer02_sd         =   9.1670435483502899E-02
(PID.TID 0000.0001) %MON trcstat_ptracer02_del2       =   0.0000000000000000E+00
(PID.TID 0000.0001) %MON trcstat_ptracer03_max        =   4.5345326000526476E-01
(PID.TID 0000.0001) %MON trcstat_ptracer03_min        =   1.1566856023532274E-04
(PID.TID 0000.0001) %MON trcstat_ptracer03_mean       =   3.0550743871168028E-02
(PID.TID 0000.0001) %MON trcstat_ptracer03_sd         =   8.0591751617553706E-02
(PID.TID 0000.0001) %MON trcstat_ptracer03_del2       =   0.0000000000000000E+00
(PID.TID 0000.0001) %MON trcstat_ptracer04_max        =   3.3950305091707094E+01
(PID.TID 0000.0001) %MON trcstat_ptracer04_min        =   1.6872912090174136E+01
(PID.TID 0000.0001) %MON trcstat_ptracer04_mean       =   3.0466070424052276E+01
(PID.TID 0000.0001) %MON trcstat_ptracer04_sd         =   3.3238779353815655E+00
(PID.TID 0000.0001) %MON trcstat_ptracer04_del2       =   0.0000000000000000E+00
(PID.TID 0000.0001) %MON trcstat_ptracer05_max        =   2.3152016798621151E+00
(PID.TID 0000.0001) %MON trcstat_ptracer05_min        =   1.0873033254604785E+00
(PID.TID 0000.0001) %MON trcstat_ptracer05_mean       =   2.0495161457051863E+00
(PID.TID 0000.0001) %MON trcstat_ptracer05_sd         =   2.5612250671969988E-01
(PID.TID 0000.0001) %MON trcstat_ptracer05_del2       =   0.0000000000000000E+00
(PID.TID 0000.0001) %MON trcstat_ptracer06_max        =   9.2368790303357784E+01
(PID.TID 0000.0001) %MON trcstat_ptracer06_min        =   4.8377672137339445E-01
(PID.TID 0000.0001) %MON trcstat_ptracer06_mean       =   6.0517938746762695E+01
(PID.TID 0000.0001) %MON trcstat_ptracer06_sd         =   2.7564388514073727E+01
(PID.TID 0000.0001) %MON trcstat_ptracer06_del2       =   0.0000000000000000E+00
(PID.TID 0000.0001) %MON trcstat_ptracer07_max        =   1.0535450535043558E-03
(PID.TID 0000.0001) %MON trcstat_ptracer07_min        =   1.0523356116930549E-03
(PID.TID 0000.0001) %MON trcstat_ptracer07_mean       =   1.0523817727488495E-03
(PID.TID 0000.0001) %MON trcstat_ptracer07_sd         =   6.4358583547367669E-08
(PID.TID 0000.0001) %MON trcstat_ptracer07_del2       =   0.0000000000000000E+00
(PID.TID 0000.0001) %MON trcstat_ptracer08_max        =   2.2205835490438166E-02
(PID.TID 0000.0001) %MON trcstat_ptracer08_min        =   4.1642388788501781E-70
(PID.TID 0000.0001) %MON trcstat_ptracer08_mean       =   6.4455339875464808E-04
(PID.TID 0000.0001) %MON trcstat_ptracer08_sd         =   3.3181589028731641E-03
(PID.TID 0000.0001) %MON trcstat_ptracer08_del2       =   0.0000000000000000E+00
(PID.TID 0000.0001) %MON trcstat_ptracer09_max        =   2.4470590164423980E+00
(PID.TID 0000.0001) %MON trcstat_ptracer09_min        =   9.5767779491508839E-37
(PID.TID 0000.0001) %MON trcstat_ptracer09_mean       =   9.9968112501590101E-02
(PID.TID 0000.0001) %MON trcstat_ptracer09_sd         =   4.0747860820896870E-01
(PID.TID 0000.0001) %MON trcstat_ptracer09_del2       =   0.0000000000000000E+00
(PID.TID 0000.0001) %MON trcstat_ptracer10_max        =   1.5294113623283470E-01
(PID.TID 0000.0001) %MON trcstat_ptracer10_min        =   5.9854862182193025E-38
(PID.TID 0000.0001) %MON trcstat_ptracer10_mean       =   6.2480057240311441E-03
(PID.TID 0000.0001) %MON trcstat_ptracer10_sd         =   2.5467406733356148E-02
(PID.TID 0000.0001) %MON trcstat_ptracer10_del2       =   0.0000000000000000E+00
(PID.TID 0000.0001) %MON trcstat_ptracer11_max        =   1.5294214458454905E-04
(PID.TID 0000.0001) %MON trcstat_ptracer11_min        =   5.9854843341107455E-41
(PID.TID 0000.0001) %MON trcstat_ptracer11_mean       =   6.2480310006616851E-06
(PID.TID 0000.0001) %MON trcstat_ptracer11_sd         =   2.5467528076943717E-05
(PID.TID 0000.0001) %MON trcstat_ptracer11_del2       =   0.0000000000000000E+00
(PID.TID 0000.0001) %MON trcstat_ptracer12_max        =   9.5147004544989672E-03
(PID.TID 0000.0001) %MON trcstat_ptracer12_min        =   1.2514903746621298E-60
(PID.TID 0000.0001) %MON trcstat_ptracer12_mean       =   2.7610041536014015E-04
(PID.TID 0000.0001) %MON trcstat_ptracer12_sd         =   1.4159102892302745E-03
(PID.TID 0000.0001) %MON trcstat_ptracer12_del2       =   0.0000000000000000E+00
(PID.TID 0000.0001) %MON trcstat_ptracer13_max        =   4.2319417121899200E-01
(PID.TID 0000.0001) %MON trcstat_ptracer13_min        =   5.2280860676480554E-04
(PID.TID 0000.0001) %MON trcstat_ptracer13_mean       =   7.5604301869542520E-02
(PID.TID 0000.0001) %MON trcstat_ptracer13_sd         =   1.2280285646406618E-01
(PID.TID 0000.0001) %MON trcstat_ptracer13_del2       =   0.0000000000000000E+00
(PID.TID 0000.0001) %MON trcstat_ptracer14_max        =   2.6449634980557354E-02
(PID.TID 0000.0001) %MON trcstat_ptracer14_min        =   3.2675537922800346E-05
(PID.TID 0000.0001) %MON trcstat_ptracer14_mean       =   4.7252682109981941E-03
(PID.TID 0000.0001) %MON trcstat_ptracer14_sd         =   7.6751779660574051E-03
(PID.TID 0000.0001) %MON trcstat_ptracer14_del2       =   0.0000000000000000E+00
(PID.TID 0000.0001) %MON trcstat_ptracer15_max        =   1.7457828322119413E-04
(PID.TID 0000.0001) %MON trcstat_ptracer15_min        =   7.0792910175049452E-08
(PID.TID 0000.0001) %MON trcstat_ptracer15_mean       =   8.0177195392425697E-05
(PID.TID 0000.0001) %MON trcstat_ptracer15_sd         =   6.8090114939924881E-05
(PID.TID 0000.0001) %MON trcstat_ptracer15_del2       =   0.0000000000000000E+00
(PID.TID 0000.0001) %MON trcstat_ptracer16_max        =   2.6449647125179161E-05
(PID.TID 0000.0001) %MON trcstat_ptracer16_min        =   3.2675541013434595E-08
(PID.TID 0000.0001) %MON trcstat_ptracer16_mean       =   4.7252807865253017E-06
(PID.TID 0000.0001) %MON trcstat_ptracer16_sd         =   7.6751886374628535E-06
(PID.TID 0000.0001) %MON trcstat_ptracer16_del2       =   0.0000000000000000E+00
(PID.TID 0000.0001) %MON trcstat_ptracer17_max        =   2.4323383786809669E-05
(PID.TID 0000.0001) %MON trcstat_ptracer17_min        =   1.9879380290707456E-62
(PID.TID 0000.0001) %MON trcstat_ptracer17_mean       =   5.9184009960448800E-07
(PID.TID 0000.0001) %MON trcstat_ptracer17_sd         =   3.1147484368962489E-06
(PID.TID 0000.0001) %MON trcstat_ptracer17_del2       =   0.0000000000000000E+00
(PID.TID 0000.0001) %MON trcstat_ptracer18_max        =   2.3492329043275422E+03
(PID.TID 0000.0001) %MON trcstat_ptracer18_min        =   2.2745715695265653E+03
(PID.TID 0000.0001) %MON trcstat_ptracer18_mean       =   2.3217990304773598E+03
(PID.TID 0000.0001) %MON trcstat_ptracer18_sd         =   2.4949961803975906E+01
(PID.TID 0000.0001) %MON trcstat_ptracer18_del2       =   0.0000000000000000E+00
(PID.TID 0000.0001) %MON trcstat_ptracer19_max        =   3.0078324038635770E+02
(PID.TID 0000.0001) %MON trcstat_ptracer19_min        =   1.9389558242422237E+02
(PID.TID 0000.0001) %MON trcstat_ptracer19_mean       =   2.2311350749362933E+02
(PID.TID 0000.0001) %MON trcstat_ptracer19_sd         =   2.8036404163685852E+01
(PID.TID 0000.0001) %MON trcstat_ptracer19_del2       =   0.0000000000000000E+00
(PID.TID 0000.0001) %MON trcstat_ptracer20_max        =   6.4126558565139730E-04
(PID.TID 0000.0001) %MON trcstat_ptracer20_min        =   2.7843291884969477E-62
(PID.TID 0000.0001) %MON trcstat_ptracer20_mean       =   1.9953222769422280E-05
(PID.TID 0000.0001) %MON trcstat_ptracer20_sd         =   8.7418629436867288E-05
(PID.TID 0000.0001) %MON trcstat_ptracer20_del2       =   0.0000000000000000E+00
(PID.TID 0000.0001) %MON trcstat_ptracer21_max        =   6.4123785256010141E-04
(PID.TID 0000.0001) %MON trcstat_ptracer21_min        =   2.7843291831506252E-62
(PID.TID 0000.0001) %MON trcstat_ptracer21_mean       =   1.9965927378549289E-05
(PID.TID 0000.0001) %MON trcstat_ptracer21_sd         =   8.7523058079709860E-05
(PID.TID 0000.0001) %MON trcstat_ptracer21_del2       =   0.0000000000000000E+00
(PID.TID 0000.0001) %MON trcstat_ptracer22_max        =   6.3904335597790845E-04
(PID.TID 0000.0001) %MON trcstat_ptracer22_min        =   1.1397160580765911E-70
(PID.TID 0000.0001) %MON trcstat_ptracer22_mean       =   1.9914781757294227E-05
(PID.TID 0000.0001) %MON trcstat_ptracer22_sd         =   8.7277997280692338E-05
(PID.TID 0000.0001) %MON trcstat_ptracer22_del2       =   0.0000000000000000E+00
(PID.TID 0000.0001) %MON trcstat_ptracer23_max        =   6.3903810823720802E-04
(PID.TID 0000.0001) %MON trcstat_ptracer23_min        =   1.1397160580765911E-70
(PID.TID 0000.0001) %MON trcstat_ptracer23_mean       =   1.9915011008552670E-05
(PID.TID 0000.0001) %MON trcstat_ptracer23_sd         =   8.7279541934876656E-05
(PID.TID 0000.0001) %MON trcstat_ptracer23_del2       =   0.0000000000000000E+00
(PID.TID 0000.0001) %MON trcstat_ptracer24_max        =   6.3986304287592802E-04
(PID.TID 0000.0001) %MON trcstat_ptracer24_min        =   1.1397160580765911E-70
(PID.TID 0000.0001) %MON trcstat_ptracer24_mean       =   1.9942834503337827E-05
(PID.TID 0000.0001) %MON trcstat_ptracer24_sd         =   8.7466358433333421E-05
(PID.TID 0000.0001) %MON trcstat_ptracer24_del2       =   0.0000000000000000E+00
(PID.TID 0000.0001) %MON trcstat_ptracer25_max        =   6.3988813922503517E-05
(PID.TID 0000.0001) %MON trcstat_ptracer25_min        =   2.7843298755821074E-63
(PID.TID 0000.0001) %MON trcstat_ptracer25_mean       =   1.9917186500985561E-06
(PID.TID 0000.0001) %MON trcstat_ptracer25_sd         =   8.7196594213875123E-06
(PID.TID 0000.0001) %MON trcstat_ptracer25_del2       =   0.0000000000000000E+00
(PID.TID 0000.0001) %MON trcstat_ptracer26_max        =   6.3788233819840381E-05
(PID.TID 0000.0001) %MON trcstat_ptracer26_min        =   1.1397295582470944E-71
(PID.TID 0000.0001) %MON trcstat_ptracer26_mean       =   1.9873377162586509E-06
(PID.TID 0000.0001) %MON trcstat_ptracer26_sd         =   8.7000402271215400E-06
(PID.TID 0000.0001) %MON trcstat_ptracer26_del2       =   0.0000000000000000E+00
(PID.TID 0000.0001) %MON trcstat_ptracer27_max        =   6.3904335597790845E-04
(PID.TID 0000.0001) %MON trcstat_ptracer27_min        =   1.1397160580765911E-70
(PID.TID 0000.0001) %MON trcstat_ptracer27_mean       =   1.9914781757294227E-05
(PID.TID 0000.0001) %MON trcstat_ptracer27_sd         =   8.7277997280692338E-05
(PID.TID 0000.0001) %MON trcstat_ptracer27_del2       =   0.0000000000000000E+00
(PID.TID 0000.0001) %MON trcstat_ptracer28_max        =   6.4179230623583375E-04
(PID.TID 0000.0001) %MON trcstat_ptracer28_min        =   2.7843291884969477E-62
(PID.TID 0000.0001) %MON trcstat_ptracer28_mean       =   1.9968426308893127E-05
(PID.TID 0000.0001) %MON trcstat_ptracer28_sd         =   8.7520761562207288E-05
(PID.TID 0000.0001) %MON trcstat_ptracer28_del2       =   0.0000000000000000E+00
(PID.TID 0000.0001) %MON trcstat_ptracer29_max        =   2.8326374764523621E+00
(PID.TID 0000.0001) %MON trcstat_ptracer29_min        =   4.9976876293990347E-68
(PID.TID 0000.0001) %MON trcstat_ptracer29_mean       =   8.2231140640367933E-02
(PID.TID 0000.0001) %MON trcstat_ptracer29_sd         =   4.2348233577249805E-01
(PID.TID 0000.0001) %MON trcstat_ptracer29_del2       =   0.0000000000000000E+00
(PID.TID 0000.0001) %MON trcstat_ptracer30_max        =   2.8326331770471644E+00
(PID.TID 0000.0001) %MON trcstat_ptracer30_min        =   4.9976876217914923E-68
(PID.TID 0000.0001) %MON trcstat_ptracer30_mean       =   8.2231047807042004E-02
(PID.TID 0000.0001) %MON trcstat_ptracer30_sd         =   4.2348178304571715E-01
(PID.TID 0000.0001) %MON trcstat_ptracer30_del2       =   0.0000000000000000E+00
