(PID.TID 0000.0001) %MON XC_max                       =   3.3550000000000000E+02
(PID.TID 0000.0001) %MON XC_min                       =   3.3550000000000000E+02
(PID.TID 0000.0001) %MON XC_mean                      =   3.3550000000000000E+02
(PID.TID 0000.0001) %MON XC_sd                        =   0.0000000000000000E+00
(PID.TID 0000.0001) %MON XG_max                       =   3.3500000000000000E+02
(PID.TID 0000.0001) %MON XG_min                       =   3.3500000000000000E+02
(PID.TID 0000.0001) %MON XG_mean                      =   3.3500000000000000E+02
(PID.TID 0000.0001) %MON XG_sd                        =   0.0000000000000000E+00
(PID.TID 0000.0001) %MON DXC_max                      =   1.0603184087719869E+05
(PID.TID 0000.0001) %MON DXC_min                      =   1.0603184087719869E+05
(PID.TID 0000.0001) %MON DXC_mean                     =   1.0603184087719869E+05
(PID.TID 0000.0001) %MON DXC_sd                       =   0.0000000000000000E+00
(PID.TID 0000.0001) %MON DXF_max                      =   1.0603184087719869E+05
(PID.TID 0000.0001) %MON DXF_min                      =   1.0603184087719869E+05
(PID.TID 0000.0001) %MON DXF_mean                     =   1.0603184087719869E+05
(PID.TID 0000.0001) %MON DXF_sd                       =   0.0000000000000000E+00
(PID.TID 0000.0001) %MON DXG_max                      =   1.0573606049668728E+05
(PID.TID 0000.0001) %MON DXG_min                      =   1.0573606049668728E+05
(PID.TID 0000.0001) %MON DXG_mean                     =   1.0573606049668728E+05
(PID.TID 0000.0001) %MON DXG_sd                       =   0.0000000000000000E+00
(PID.TID 0000.0001) %MON DXV_max                      =   1.0573606049668728E+05
(PID.TID 0000.0001) %MON DXV_min                      =   1.0573606049668728E+05
(PID.TID 0000.0001) %MON DXV_mean                     =   1.0573606049668728E+05
(PID.TID 0000.0001) %MON DXV_sd                       =   0.0000000000000000E+00
(PID.TID 0000.0001) %MON YC_max                       =  -1.7500000000000000E+01
(PID.TID 0000.0001) %MON YC_min                       =  -1.7500000000000000E+01
(PID.TID 0000.0001) %MON YC_mean                      =  -1.7500000000000000E+01
(PID.TID 0000.0001) %MON YC_sd                        =   0.0000000000000000E+00
(PID.TID 0000.0001) %MON YG_max                       =  -1.8000000000000000E+01
(PID.TID 0000.0001) %MON YG_min                       =  -1.8000000000000000E+01
(PID.TID 0000.0001) %MON YG_mean                      =  -1.8000000000000000E+01
(PID.TID 0000.0001) %MON YG_sd                        =   0.0000000000000000E+00
(PID.TID 0000.0001) %MON DYC_max                      =   1.1117747335203880E+05
(PID.TID 0000.0001) %MON DYC_min                      =   1.1117747335203880E+05
(PID.TID 0000.0001) %MON DYC_mean                     =   1.1117747335203880E+05
(PID.TID 0000.0001) %MON DYC_sd                       =   0.0000000000000000E+00
(PID.TID 0000.0001) %MON DYF_max                      =   1.1117747335203880E+05
(PID.TID 0000.0001) %MON DYF_min                      =   1.1117747335203880E+05
(PID.TID 0000.0001) %MON DYF_mean                     =   1.1117747335203880E+05
(PID.TID 0000.0001) %MON DYF_sd                       =   0.0000000000000000E+00
(PID.TID 0000.0001) %MON DYG_max                      =   1.1117747335203880E+05
(PID.TID 0000.0001) %MON DYG_min                      =   1.1117747335203880E+05
(PID.TID 0000.0001) %MON DYG_mean                     =   1.1117747335203880E+05
(PID.TID 0000.0001) %MON DYG_sd                       =   0.0000000000000000E+00
(PID.TID 0000.0001) %MON DYU_max                      =   1.1117747335203880E+05
(PID.TID 0000.0001) %MON DYU_min                      =   1.1117747335203880E+05
(PID.TID 0000.0001) %MON DYU_mean                     =   1.1117747335203880E+05
(PID.TID 0000.0001) %MON DYU_sd                       =   0.0000000000000000E+00
(PID.TID 0000.0001) %MON RA_max                       =   1.1788202541769560E+10
(PID.TID 0000.0001) %MON RA_min                       =   1.1788202541769560E+10
(PID.TID 0000.0001) %MON RA_mean                      =   1.1788202541769560E+10
(PID.TID 0000.0001) %MON RA_sd                        =   0.0000000000000000E+00
(PID.TID 0000.0001) %MON RAW_max                      =   1.1788202541769560E+10
(PID.TID 0000.0001) %MON RAW_min                      =   1.1788202541769560E+10
(PID.TID 0000.0001) %MON RAW_mean                     =   1.1788202541769560E+10
(PID.TID 0000.0001) %MON RAW_sd                       =   0.0000000000000000E+00
(PID.TID 0000.0001) %MON RAS_max                      =   1.1755318843773766E+10
(PID.TID 0000.0001) %MON RAS_min                      =   1.1755318843773766E+10
(PID.TID 0000.0001) %MON RAS_mean                     =   1.1755318843773766E+10
(PID.TID 0000.0001) %MON RAS_sd                       =   0.0000000000000000E+00
(PID.TID 0000.0001) %MON RAZ_max                      =   1.1755318843773766E+10
(PID.TID 0000.0001) %MON RAZ_min                      =   1.1755318843773766E+10
(PID.TID 0000.0001) %MON RAZ_mean                     =   1.1755318843773766E+10
(PID.TID 0000.0001) %MON RAZ_sd                       =   0.0000000000000000E+00
(PID.TID 0000.0001) %MON AngleCS_max                  =   1.0000000000000000E+00
(PID.TID 0000.0001) %MON AngleCS_min                  =   1.0000000000000000E+00
(PID.TID 0000.0001) %MON AngleCS_mean                 =   1.0000000000000000E+00
(PID.TID 0000.0001) %MON AngleCS_sd                   =   0.0000000000000000E+00
(PID.TID 0000.0001) %MON AngleSN_max                  =   0.0000000000000000E+00
(PID.TID 0000.0001) %MON AngleSN_min                  =   0.0000000000000000E+00
(PID.TID 0000.0001) %MON AngleSN_mean                 =   0.0000000000000000E+00
(PID.TID 0000.0001) %MON AngleSN_sd                   =   0.0000000000000000E+00
(PID.TID 0000.0001) %MON fCori_max                    =  -4.3855676645210050E-05
(PID.TID 0000.0001) %MON fCori_min                    =  -4.3855676645210050E-05
(PID.TID 0000.0001) %MON fCori_mean                   =  -4.3855676645210050E-05
(PID.TID 0000.0001) %MON fCori_sd                     =   0.0000000000000000E+00
(PID.TID 0000.0001) %MON fCoriG_max                   =  -4.5067801836624727E-05
(PID.TID 0000.0001) %MON fCoriG_min                   =  -4.5067801836624727E-05
(PID.TID 0000.0001) %MON fCoriG_mean                  =  -4.5067801836624727E-05
(PID.TID 0000.0001) %MON fCoriG_sd                    =   0.0000000000000000E+00
(PID.TID 0000.0001) %MON fCoriCos_max                 =   1.3909243610206993E-04
(PID.TID 0000.0001) %MON fCoriCos_min                 =   1.3909243610206993E-04
(PID.TID 0000.0001) %MON fCoriCos_mean                =   1.3909243610206993E-04
(PID.TID 0000.0001) %MON fCoriCos_sd                  =   0.0000000000000000E+00
(PID.TID 0000.0001) %MON time_tsnumber                =                     0
(PID.TID 0000.0001) %MON time_secondsf                =   0.0000000000000000E+00
(PID.TID 0000.0001) %MON dynstat_eta_max              =   0.0000000000000000E+00
(PID.TID 0000.0001) %MON dynstat_eta_min              =   0.0000000000000000E+00
(PID.TID 0000.0001) %MON dynstat_eta_mean             =   0.0000000000000000E+00
(PID.TID 0000.0001) %MON dynstat_eta_sd               =   0.0000000000000000E+00
(PID.TID 0000.0001) %MON dynstat_eta_del2             =   0.0000000000000000E+00
(PID.TID 0000.0001) %MON dynstat_uvel_max             =   0.0000000000000000E+00
(PID.TID 0000.0001) %MON dynstat_uvel_min             =   0.0000000000000000E+00
(PID.TID 0000.0001) %MON dynstat_uvel_mean            =   0.0000000000000000E+00
(PID.TID 0000.0001) %MON dynstat_uvel_sd              =   0.0000000000000000E+00
(PID.TID 0000.0001) %MON dynstat_uvel_del2            =   0.0000000000000000E+00
(PID.TID 0000.0001) %MON dynstat_vvel_max             =   0.0000000000000000E+00
(PID.TID 0000.0001) %MON dynstat_vvel_min             =   0.0000000000000000E+00
(PID.TID 0000.0001) %MON dynstat_vvel_mean            =   0.0000000000000000E+00
(PID.TID 0000.0001) %MON dynstat_vvel_sd              =   0.0000000000000000E+00
(PID.TID 0000.0001) %MON dynstat_vvel_del2            =   0.0000000000000000E+00
(PID.TID 0000.0001) %MON dynstat_wvel_max             =   0.0000000000000000E+00
(PID.TID 0000.0001) %MON dynstat_wvel_min             =   0.0000000000000000E+00
(PID.TID 0000.0001) %MON dynstat_wvel_mean            =   0.0000000000000000E+00
(PID.TID 0000.0001) %MON dynstat_wvel_sd              =   0.0000000000000000E+00
(PID.TID 0000.0001) %MON dynstat_wvel_del2            =   0.0000000000000000E+00
(PID.TID 0000.0001) %MON dynstat_theta_max            =   2.6345800399780273E+01
(PID.TID 0000.0001) %MON dynstat_theta_min            =   2.6737000942230225E+00
(PID.TID 0000.0001) %MON dynstat_theta_mean           =   5.4735936027057521E+00
(PID.TID 0000.0001) %MON dynstat_theta_sd             =   5.1972090828105486E+00
(PID.TID 0000.0001) %MON dynstat_theta_del2           =   0.0000000000000000E+00
(PID.TID 0000.0001) %MON dynstat_salt_max             =   3.5000000000000000E+01
(PID.TID 0000.0001) %MON dynstat_salt_min             =   3.5000000000000000E+01
(PID.TID 0000.0001) %MON dynstat_salt_mean            =   3.5000000000000007E+01
(PID.TID 0000.0001) %MON dynstat_salt_sd              =   7.1054273576010019E-15
(PID.TID 0000.0001) %MON dynstat_salt_del2            =   0.0000000000000000E+00
(PID.TID 0000.0001) %MON dynstat_sst_max              =   2.6345800399780273E+01
(PID.TID 0000.0001) %MON dynstat_sst_min              =   2.6345800399780273E+01
(PID.TID 0000.0001) %MON dynstat_sst_mean             =   2.6345800399780273E+01
(PID.TID 0000.0001) %MON dynstat_sst_sd               =   0.0000000000000000E+00
(PID.TID 0000.0001) %MON dynstat_sst_del2             =   0.0000000000000000E+00
(PID.TID 0000.0001) %MON dynstat_sss_max              =   3.5000000000000000E+01
(PID.TID 0000.0001) %MON dynstat_sss_min              =   3.5000000000000000E+01
(PID.TID 0000.0001) %MON dynstat_sss_mean             =   3.5000000000000000E+01
(PID.TID 0000.0001) %MON dynstat_sss_sd               =   0.0000000000000000E+00
(PID.TID 0000.0001) %MON dynstat_sss_del2             =   0.0000000000000000E+00
(PID.TID 0000.0001) %MON forcing_qnet_max             =   0.0000000000000000E+00
(PID.TID 0000.0001) %MON forcing_qnet_min             =   0.0000000000000000E+00
(PID.TID 0000.0001) %MON forcing_qnet_mean            =   0.0000000000000000E+00
(PID.TID 0000.0001) %MON forcing_qnet_sd              =   0.0000000000000000E+00
(PID.TID 0000.0001) %MON forcing_qnet_del2            =   0.0000000000000000E+00
(PID.TID 0000.0001) %MON forcing_qsw_max              =   0.0000000000000000E+00
(PID.TID 0000.0001) %MON forcing_qsw_min              =   0.0000000000000000E+00
(PID.TID 0000.0001) %MON forcing_qsw_mean             =   0.0000000000000000E+00
(PID.TID 0000.0001) %MON forcing_qsw_sd               =   0.0000000000000000E+00
(PID.TID 0000.0001) %MON forcing_qsw_del2             =   0.0000000000000000E+00
(PID.TID 0000.0001) %MON forcing_empmr_max            =   0.0000000000000000E+00
(PID.TID 0000.0001) %MON forcing_empmr_min            =   0.0000000000000000E+00
(PID.TID 0000.0001) %MON forcing_empmr_mean           =   0.0000000000000000E+00
(PID.TID 0000.0001) %MON forcing_empmr_sd             =   0.0000000000000000E+00
(PID.TID 0000.0001) %MON forcing_empmr_del2           =   0.0000000000000000E+00
(PID.TID 0000.0001) %MON forcing_fu_max               =   0.0000000000000000E+00
(PID.TID 0000.0001) %MON forcing_fu_min               =   0.0000000000000000E+00
(PID.TID 0000.0001) %MON forcing_fu_mean              =   0.0000000000000000E+00
(PID.TID 0000.0001) %MON forcing_fu_sd                =   0.0000000000000000E+00
(PID.TID 0000.0001) %MON forcing_fu_del2              =   0.0000000000000000E+00
(PID.TID 0000.0001) %MON forcing_fv_max               =   0.0000000000000000E+00
(PID.TID 0000.0001) %MON forcing_fv_min               =   0.0000000000000000E+00
(PID.TID 0000.0001) %MON forcing_fv_mean              =   0.0000000000000000E+00
(PID.TID 0000.0001) %MON forcing_fv_sd                =   0.0000000000000000E+00
(PID.TID 0000.0001) %MON forcing_fv_del2              =   0.0000000000000000E+00
(PID.TID 0000.0001) %MON advcfl_uvel_max              =   0.0000000000000000E+00
(PID.TID 0000.0001) %MON advcfl_vvel_max              =   0.0000000000000000E+00
(PID.TID 0000.0001) %MON advcfl_wvel_max              =   0.0000000000000000E+00
(PID.TID 0000.0001) %MON advcfl_W_hf_max              =   0.0000000000000000E+00
(PID.TID 0000.0001) %MON pe_b_mean                    =   0.0000000000000000E+00
(PID.TID 0000.0001) %MON ke_max                       =   0.0000000000000000E+00
(PID.TID 0000.0001) %MON ke_mean                      =   0.0000000000000000E+00
(PID.TID 0000.0001) %MON ke_vol                       =   4.1199767883484609E+13
(PID.TID 0000.0001) %MON vort_r_min                   =   0.0000000000000000E+00
(PID.TID 0000.0001) %MON vort_r_max                   =   0.0000000000000000E+00
(PID.TID 0000.0001) %MON vort_a_mean                  =  -4.5067801836624727E-05
(PID.TID 0000.0001) %MON vort_a_sd                    =  -4.1359030627651384E-25
(PID.TID 0000.0001) %MON vort_p_mean                  =  -4.5067801836624727E-05
(PID.TID 0000.0001) %MON vort_p_sd                    =   0.0000000000000000E+00
(PID.TID 0000.0001) %MON surfExpan_theta_mean         =   0.0000000000000000E+00
(PID.TID 0000.0001) %MON surfExpan_salt_mean          =   0.0000000000000000E+00
(PID.TID 0000.0001) %MON trcstat_ptracer01_max        =                      NAN
(PID.TID 0000.0001) %MON trcstat_ptracer01_min        =                      NAN
(PID.TID 0000.0001) %MON trcstat_ptracer01_mean       =                      NAN
(PID.TID 0000.0001) %MON trcstat_ptracer01_sd         =                      NAN
(PID.TID 0000.0001) %MON trcstat_ptracer01_del2       =                      NAN
(PID.TID 0000.0001) %MON trcstat_ptracer02_max        =   2.5584036484360695E-02
(PID.TID 0000.0001) %MON trcstat_ptracer02_min        =   1.8763074649541522E-07
(PID.TID 0000.0001) %MON trcstat_ptracer02_mean       =   6.0352662496818848E-04
(PID.TID 0000.0001) %MON trcstat_ptracer02_sd         =   3.2425361014467536E-03
(PID.TID 0000.0001) %MON trcstat_ptracer02_del2       =   0.0000000000000000E+00
(PID.TID 0000.0001) %MON trcstat_ptracer03_max        =   1.8258459866046906E-02
(PID.TID 0000.0001) %MON trcstat_ptracer03_min        =   3.8796779335825704E-06
(PID.TID 0000.0001) %MON trcstat_ptracer03_mean       =   6.0474443227462045E-04
(PID.TID 0000.0001) %MON trcstat_ptracer03_sd         =   1.9428680890593122E-03
(PID.TID 0000.0001) %MON trcstat_ptracer03_del2       =   0.0000000000000000E+00
(PID.TID 0000.0001) %MON trcstat_ptracer04_max        =   3.3903499603271484E+01
(PID.TID 0000.0001) %MON trcstat_ptracer04_min        =   4.6300001442432404E-02
(PID.TID 0000.0001) %MON trcstat_ptracer04_mean       =   2.3502389802217742E+01
(PID.TID 0000.0001) %MON trcstat_ptracer04_sd         =   7.8162030599380596E+00
(PID.TID 0000.0001) %MON trcstat_ptracer04_del2       =   0.0000000000000000E+00
(PID.TID 0000.0001) %MON trcstat_ptracer05_max        =   2.2437000274658203E+00
(PID.TID 0000.0001) %MON trcstat_ptracer05_min        =   2.1024999022483826E-01
(PID.TID 0000.0001) %MON trcstat_ptracer05_mean       =   1.5821337454308768E+00
(PID.TID 0000.0001) %MON trcstat_ptracer05_sd         =   4.6735065681379767E-01
(PID.TID 0000.0001) %MON trcstat_ptracer05_del2       =   0.0000000000000000E+00
(PID.TID 0000.0001) %MON trcstat_ptracer06_max        =   3.9387401580810547E+01
(PID.TID 0000.0001) %MON trcstat_ptracer06_min        =   1.2247999906539917E+00
(PID.TID 0000.0001) %MON trcstat_ptracer06_mean       =   2.9621888811155113E+01
(PID.TID 0000.0001) %MON trcstat_ptracer06_sd         =   1.1270588565468758E+01
(PID.TID 0000.0001) %MON trcstat_ptracer06_del2       =   0.0000000000000000E+00
(PID.TID 0000.0001) %MON trcstat_ptracer07_max        =   1.3000000035390258E-03
(PID.TID 0000.0001) %MON trcstat_ptracer07_min        =   1.3000000035390258E-03
(PID.TID 0000.0001) %MON trcstat_ptracer07_mean       =   1.3000000035390258E-03
(PID.TID 0000.0001) %MON trcstat_ptracer07_sd         =   0.0000000000000000E+00
(PID.TID 0000.0001) %MON trcstat_ptracer07_del2       =   0.0000000000000000E+00
(PID.TID 0000.0001) %MON trcstat_ptracer08_max        =   6.1361303552985191E-01
(PID.TID 0000.0001) %MON trcstat_ptracer08_min        =   0.0000000000000000E+00
(PID.TID 0000.0001) %MON trcstat_ptracer08_mean       =   2.5768235051024848E-02
(PID.TID 0000.0001) %MON trcstat_ptracer08_sd         =   1.1093058611766035E-01
(PID.TID 0000.0001) %MON trcstat_ptracer08_del2       =   0.0000000000000000E+00
(PID.TID 0000.0001) %MON trcstat_ptracer09_max        =   8.1815071403980255E-02
(PID.TID 0000.0001) %MON trcstat_ptracer09_min        =   0.0000000000000000E+00
(PID.TID 0000.0001) %MON trcstat_ptracer09_mean       =   3.4357646734699799E-03
(PID.TID 0000.0001) %MON trcstat_ptracer09_sd         =   1.4790744815688046E-02
(PID.TID 0000.0001) %MON trcstat_ptracer09_del2       =   0.0000000000000000E+00
(PID.TID 0000.0001) %MON trcstat_ptracer10_max        =   5.1134419627487659E-03
(PID.TID 0000.0001) %MON trcstat_ptracer10_min        =   0.0000000000000000E+00
(PID.TID 0000.0001) %MON trcstat_ptracer10_mean       =   2.1473529209187374E-04
(PID.TID 0000.0001) %MON trcstat_ptracer10_sd         =   9.2442155098050290E-04
(PID.TID 0000.0001) %MON trcstat_ptracer10_del2       =   0.0000000000000000E+00
(PID.TID 0000.0001) %MON trcstat_ptracer11_max        =   5.1134416025888640E-06
(PID.TID 0000.0001) %MON trcstat_ptracer11_min        =   0.0000000000000000E+00
(PID.TID 0000.0001) %MON trcstat_ptracer11_mean       =   2.1473529239837693E-07
(PID.TID 0000.0001) %MON trcstat_ptracer11_sd         =   9.2442155063872205E-07
(PID.TID 0000.0001) %MON trcstat_ptracer11_del2       =   0.0000000000000000E+00
(PID.TID 0000.0001) %MON trcstat_ptracer12_max        =   3.2696326961740851E-02
(PID.TID 0000.0001) %MON trcstat_ptracer12_min        =   1.4074325918045361E-04
(PID.TID 0000.0001) %MON trcstat_ptracer12_mean       =   9.4718200756289880E-03
(PID.TID 0000.0001) %MON trcstat_ptracer12_sd         =   1.1596152472639534E-02
(PID.TID 0000.0001) %MON trcstat_ptracer12_del2       =   0.0000000000000000E+00
(PID.TID 0000.0001) %MON trcstat_ptracer13_max        =   4.3595102615654469E-03
(PID.TID 0000.0001) %MON trcstat_ptracer13_min        =   1.8765767890727147E-05
(PID.TID 0000.0001) %MON trcstat_ptracer13_mean       =   1.2629093434171983E-03
(PID.TID 0000.0001) %MON trcstat_ptracer13_sd         =   1.5461536630186044E-03
(PID.TID 0000.0001) %MON trcstat_ptracer13_del2       =   0.0000000000000000E+00
(PID.TID 0000.0001) %MON trcstat_ptracer14_max        =   2.7246939134784043E-04
(PID.TID 0000.0001) %MON trcstat_ptracer14_min        =   1.1728604931704467E-06
(PID.TID 0000.0001) %MON trcstat_ptracer14_mean       =   7.8931833963574895E-05
(PID.TID 0000.0001) %MON trcstat_ptracer14_sd         =   9.6634603938662776E-05
(PID.TID 0000.0001) %MON trcstat_ptracer14_del2       =   0.0000000000000000E+00
(PID.TID 0000.0001) %MON trcstat_ptracer15_max        =   1.6253039240837097E-02
(PID.TID 0000.0001) %MON trcstat_ptracer15_min        =   1.1382005177438259E-03
(PID.TID 0000.0001) %MON trcstat_ptracer15_mean       =   5.4894673427532239E-03
(PID.TID 0000.0001) %MON trcstat_ptracer15_sd         =   5.1731692661236344E-03
(PID.TID 0000.0001) %MON trcstat_ptracer15_del2       =   0.0000000000000000E+00
(PID.TID 0000.0001) %MON trcstat_ptracer16_max        =   2.7246940703662403E-07
(PID.TID 0000.0001) %MON trcstat_ptracer16_min        =   1.1728603643845759E-09
(PID.TID 0000.0001) %MON trcstat_ptracer16_mean       =   7.8931834490194816E-08
(PID.TID 0000.0001) %MON trcstat_ptracer16_sd         =   9.6634605997272585E-08
(PID.TID 0000.0001) %MON trcstat_ptracer16_del2       =   0.0000000000000000E+00
(PID.TID 0000.0001) %MON trcstat_ptracer17_max        =                      NAN
(PID.TID 0000.0001) %MON trcstat_ptracer17_min        =                      NAN
(PID.TID 0000.0001) %MON trcstat_ptracer17_mean       =                      NAN
(PID.TID 0000.0001) %MON trcstat_ptracer17_sd         =                      NAN
(PID.TID 0000.0001) %MON trcstat_ptracer17_del2       =                      NAN
(PID.TID 0000.0001) %MON trcstat_ptracer18_max        =   8.8153867181972601E-04
(PID.TID 0000.0001) %MON trcstat_ptracer18_min        =   0.0000000000000000E+00
(PID.TID 0000.0001) %MON trcstat_ptracer18_mean       =   2.6284899836225207E-05
(PID.TID 0000.0001) %MON trcstat_ptracer18_sd         =   1.3780694875415345E-04
(PID.TID 0000.0001) %MON trcstat_ptracer18_del2       =   0.0000000000000000E+00
(PID.TID 0000.0001) %MON trcstat_ptracer19_max        =   8.8153867181972601E-04
(PID.TID 0000.0001) %MON trcstat_ptracer19_min        =   0.0000000000000000E+00
(PID.TID 0000.0001) %MON trcstat_ptracer19_mean       =   2.6284899836225207E-05
(PID.TID 0000.0001) %MON trcstat_ptracer19_sd         =   1.3780694875415345E-04
(PID.TID 0000.0001) %MON trcstat_ptracer19_del2       =   0.0000000000000000E+00
(PID.TID 0000.0001) %MON trcstat_ptracer20_max        =   8.8153867181972601E-04
(PID.TID 0000.0001) %MON trcstat_ptracer20_min        =   0.0000000000000000E+00
(PID.TID 0000.0001) %MON trcstat_ptracer20_mean       =   2.6284899836225207E-05
(PID.TID 0000.0001) %MON trcstat_ptracer20_sd         =   1.3780694875415345E-04
(PID.TID 0000.0001) %MON trcstat_ptracer20_del2       =   0.0000000000000000E+00
(PID.TID 0000.0001) %MON trcstat_ptracer21_max        =   8.8153867181972601E-04
(PID.TID 0000.0001) %MON trcstat_ptracer21_min        =   0.0000000000000000E+00
(PID.TID 0000.0001) %MON trcstat_ptracer21_mean       =   2.6284899836225207E-05
(PID.TID 0000.0001) %MON trcstat_ptracer21_sd         =   1.3780694875415345E-04
(PID.TID 0000.0001) %MON trcstat_ptracer21_del2       =   0.0000000000000000E+00
(PID.TID 0000.0001) %MON trcstat_ptracer22_max        =   8.8153867181972601E-04
(PID.TID 0000.0001) %MON trcstat_ptracer22_min        =   0.0000000000000000E+00
(PID.TID 0000.0001) %MON trcstat_ptracer22_mean       =   2.6284899836225207E-05
(PID.TID 0000.0001) %MON trcstat_ptracer22_sd         =   1.3780694875415345E-04
(PID.TID 0000.0001) %MON trcstat_ptracer22_del2       =   0.0000000000000000E+00
(PID.TID 0000.0001) %MON trcstat_ptracer23_max        =   8.8153867181972601E-04
(PID.TID 0000.0001) %MON trcstat_ptracer23_min        =   0.0000000000000000E+00
(PID.TID 0000.0001) %MON trcstat_ptracer23_mean       =   2.6284899836225207E-05
(PID.TID 0000.0001) %MON trcstat_ptracer23_sd         =   1.3780694875415345E-04
(PID.TID 0000.0001) %MON trcstat_ptracer23_del2       =   0.0000000000000000E+00
(PID.TID 0000.0001) %MON trcstat_ptracer24_max        =   8.8153867181972601E-04
(PID.TID 0000.0001) %MON trcstat_ptracer24_min        =   0.0000000000000000E+00
(PID.TID 0000.0001) %MON trcstat_ptracer24_mean       =   2.6284899836225207E-05
(PID.TID 0000.0001) %MON trcstat_ptracer24_sd         =   1.3780694875415345E-04
(PID.TID 0000.0001) %MON trcstat_ptracer24_del2       =   0.0000000000000000E+00
(PID.TID 0000.0001) %MON trcstat_ptracer25_max        =   8.8153867181972601E-04
(PID.TID 0000.0001) %MON trcstat_ptracer25_min        =   0.0000000000000000E+00
(PID.TID 0000.0001) %MON trcstat_ptracer25_mean       =   2.6284899836225207E-05
(PID.TID 0000.0001) %MON trcstat_ptracer25_sd         =   1.3780694875415345E-04
(PID.TID 0000.0001) %MON trcstat_ptracer25_del2       =   0.0000000000000000E+00
(PID.TID 0000.0001) %MON trcstat_ptracer26_max        =   8.8153867181972601E-04
(PID.TID 0000.0001) %MON trcstat_ptracer26_min        =   0.0000000000000000E+00
(PID.TID 0000.0001) %MON trcstat_ptracer26_mean       =   2.6284899836225207E-05
(PID.TID 0000.0001) %MON trcstat_ptracer26_sd         =   1.3780694875415345E-04
(PID.TID 0000.0001) %MON trcstat_ptracer26_del2       =   0.0000000000000000E+00
(PID.TID 0000.0001) %MON trcstat_ptracer27_max        =   8.8153867181972601E-04
(PID.TID 0000.0001) %MON trcstat_ptracer27_min        =   0.0000000000000000E+00
(PID.TID 0000.0001) %MON trcstat_ptracer27_mean       =   2.6284899836225207E-05
(PID.TID 0000.0001) %MON trcstat_ptracer27_sd         =   1.3780694875415345E-04
(PID.TID 0000.0001) %MON trcstat_ptracer27_del2       =   0.0000000000000000E+00
(PID.TID 0000.0001) %MON trcstat_ptracer28_max        =   8.8153867181972601E-04
(PID.TID 0000.0001) %MON trcstat_ptracer28_min        =   0.0000000000000000E+00
(PID.TID 0000.0001) %MON trcstat_ptracer28_mean       =   2.6284899836225207E-05
(PID.TID 0000.0001) %MON trcstat_ptracer28_sd         =   1.3780694875415345E-04
(PID.TID 0000.0001) %MON trcstat_ptracer28_del2       =   0.0000000000000000E+00
(PID.TID 0000.0001) %MON trcstat_ptracer29_max        =   8.8153867181972601E-04
(PID.TID 0000.0001) %MON trcstat_ptracer29_min        =   0.0000000000000000E+00
(PID.TID 0000.0001) %MON trcstat_ptracer29_mean       =   2.6284899836225207E-05
(PID.TID 0000.0001) %MON trcstat_ptracer29_sd         =   1.3780694875415345E-04
(PID.TID 0000.0001) %MON trcstat_ptracer29_del2       =   0.0000000000000000E+00
(PID.TID 0000.0001) %MON trcstat_ptracer30_max        =   8.8153867181972601E-04
(PID.TID 0000.0001) %MON trcstat_ptracer30_min        =   0.0000000000000000E+00
(PID.TID 0000.0001) %MON trcstat_ptracer30_mean       =   2.6284899836225207E-05
(PID.TID 0000.0001) %MON trcstat_ptracer30_sd         =   1.3780694875415345E-04
(PID.TID 0000.0001) %MON trcstat_ptracer30_del2       =   0.0000000000000000E+00
(PID.TID 0000.0001) %MON trcstat_ptracer31_max        =   8.8153867181972601E-04
(PID.TID 0000.0001) %MON trcstat_ptracer31_min        =   0.0000000000000000E+00
(PID.TID 0000.0001) %MON trcstat_ptracer31_mean       =   2.6284899836225207E-05
(PID.TID 0000.0001) %MON trcstat_ptracer31_sd         =   1.3780694875415345E-04
(PID.TID 0000.0001) %MON trcstat_ptracer31_del2       =   0.0000000000000000E+00
(PID.TID 0000.0001) %MON trcstat_ptracer32_max        =   8.8153867181972601E-04
(PID.TID 0000.0001) %MON trcstat_ptracer32_min        =   0.0000000000000000E+00
(PID.TID 0000.0001) %MON trcstat_ptracer32_mean       =   2.6284899836225207E-05
(PID.TID 0000.0001) %MON trcstat_ptracer32_sd         =   1.3780694875415345E-04
(PID.TID 0000.0001) %MON trcstat_ptracer32_del2       =   0.0000000000000000E+00
(PID.TID 0000.0001) %MON trcstat_ptracer33_max        =   8.8153867181972601E-04
(PID.TID 0000.0001) %MON trcstat_ptracer33_min        =   0.0000000000000000E+00
(PID.TID 0000.0001) %MON trcstat_ptracer33_mean       =   2.6284899836225207E-05
(PID.TID 0000.0001) %MON trcstat_ptracer33_sd         =   1.3780694875415345E-04
(PID.TID 0000.0001) %MON trcstat_ptracer33_del2       =   0.0000000000000000E+00
(PID.TID 0000.0001) %MON trcstat_ptracer34_max        =   8.8153867181972601E-04
(PID.TID 0000.0001) %MON trcstat_ptracer34_min        =   0.0000000000000000E+00
(PID.TID 0000.0001) %MON trcstat_ptracer34_mean       =   2.6284899836225207E-05
(PID.TID 0000.0001) %MON trcstat_ptracer34_sd         =   1.3780694875415345E-04
(PID.TID 0000.0001) %MON trcstat_ptracer34_del2       =   0.0000000000000000E+00
(PID.TID 0000.0001) %MON trcstat_ptracer35_max        =   8.8153867181972601E-04
(PID.TID 0000.0001) %MON trcstat_ptracer35_min        =   0.0000000000000000E+00
(PID.TID 0000.0001) %MON trcstat_ptracer35_mean       =   2.6284899836225207E-05
(PID.TID 0000.0001) %MON trcstat_ptracer35_sd         =   1.3780694875415345E-04
(PID.TID 0000.0001) %MON trcstat_ptracer35_del2       =   0.0000000000000000E+00
(PID.TID 0000.0001) %MON trcstat_ptracer36_max        =   8.8153867181972601E-04
(PID.TID 0000.0001) %MON trcstat_ptracer36_min        =   0.0000000000000000E+00
(PID.TID 0000.0001) %MON trcstat_ptracer36_mean       =   2.6284899836225207E-05
(PID.TID 0000.0001) %MON trcstat_ptracer36_sd         =   1.3780694875415345E-04
(PID.TID 0000.0001) %MON trcstat_ptracer36_del2       =   0.0000000000000000E+00
(PID.TID 0000.0001) %MON trcstat_ptracer37_max        =   8.8153867181972601E-04
(PID.TID 0000.0001) %MON trcstat_ptracer37_min        =   0.0000000000000000E+00
(PID.TID 0000.0001) %MON trcstat_ptracer37_mean       =   2.6284899836225207E-05
(PID.TID 0000.0001) %MON trcstat_ptracer37_sd         =   1.3780694875415345E-04
(PID.TID 0000.0001) %MON trcstat_ptracer37_del2       =   0.0000000000000000E+00
(PID.TID 0000.0001) %MON trcstat_ptracer38_max        =   8.8153867181972601E-04
(PID.TID 0000.0001) %MON trcstat_ptracer38_min        =   0.0000000000000000E+00
(PID.TID 0000.0001) %MON trcstat_ptracer38_mean       =   2.6284899836225207E-05
(PID.TID 0000.0001) %MON trcstat_ptracer38_sd         =   1.3780694875415345E-04
(PID.TID 0000.0001) %MON trcstat_ptracer38_del2       =   0.0000000000000000E+00
(PID.TID 0000.0001) %MON trcstat_ptracer39_max        =   8.8153867181972601E-04
(PID.TID 0000.0001) %MON trcstat_ptracer39_min        =   0.0000000000000000E+00
(PID.TID 0000.0001) %MON trcstat_ptracer39_mean       =   2.6284899836225207E-05
(PID.TID 0000.0001) %MON trcstat_ptracer39_sd         =   1.3780694875415345E-04
(PID.TID 0000.0001) %MON trcstat_ptracer39_del2       =   0.0000000000000000E+00
(PID.TID 0000.0001) %MON trcstat_ptracer40_max        =   8.8153867181972601E-04
(PID.TID 0000.0001) %MON trcstat_ptracer40_min        =   0.0000000000000000E+00
(PID.TID 0000.0001) %MON trcstat_ptracer40_mean       =   2.6284899836225207E-05
(PID.TID 0000.0001) %MON trcstat_ptracer40_sd         =   1.3780694875415345E-04
(PID.TID 0000.0001) %MON trcstat_ptracer40_del2       =   0.0000000000000000E+00
(PID.TID 0000.0001) %MON trcstat_ptracer41_max        =   8.8153867181972601E-04
(PID.TID 0000.0001) %MON trcstat_ptracer41_min        =   0.0000000000000000E+00
(PID.TID 0000.0001) %MON trcstat_ptracer41_mean       =   2.6284899836225207E-05
(PID.TID 0000.0001) %MON trcstat_ptracer41_sd         =   1.3780694875415345E-04
(PID.TID 0000.0001) %MON trcstat_ptracer41_del2       =   0.0000000000000000E+00
(PID.TID 0000.0001) %MON trcstat_ptracer42_max        =   8.8153867181972601E-04
(PID.TID 0000.0001) %MON trcstat_ptracer42_min        =   0.0000000000000000E+00
(PID.TID 0000.0001) %MON trcstat_ptracer42_mean       =   2.6284899836225207E-05
(PID.TID 0000.0001) %MON trcstat_ptracer42_sd         =   1.3780694875415345E-04
(PID.TID 0000.0001) %MON trcstat_ptracer42_del2       =   0.0000000000000000E+00
(PID.TID 0000.0001) %MON trcstat_ptracer43_max        =   8.8153867181972601E-04
(PID.TID 0000.0001) %MON trcstat_ptracer43_min        =   0.0000000000000000E+00
(PID.TID 0000.0001) %MON trcstat_ptracer43_mean       =   2.6284899836225207E-05
(PID.TID 0000.0001) %MON trcstat_ptracer43_sd         =   1.3780694875415345E-04
(PID.TID 0000.0001) %MON trcstat_ptracer43_del2       =   0.0000000000000000E+00
(PID.TID 0000.0001) %MON trcstat_ptracer44_max        =   8.8153867181972601E-04
(PID.TID 0000.0001) %MON trcstat_ptracer44_min        =   0.0000000000000000E+00
(PID.TID 0000.0001) %MON trcstat_ptracer44_mean       =   2.6284899836225207E-05
(PID.TID 0000.0001) %MON trcstat_ptracer44_sd         =   1.3780694875415345E-04
(PID.TID 0000.0001) %MON trcstat_ptracer44_del2       =   0.0000000000000000E+00
(PID.TID 0000.0001) %MON trcstat_ptracer45_max        =   8.8153867181972601E-04
(PID.TID 0000.0001) %MON trcstat_ptracer45_min        =   0.0000000000000000E+00
(PID.TID 0000.0001) %MON trcstat_ptracer45_mean       =   2.6284899836225207E-05
(PID.TID 0000.0001) %MON trcstat_ptracer45_sd         =   1.3780694875415345E-04
(PID.TID 0000.0001) %MON trcstat_ptracer45_del2       =   0.0000000000000000E+00
(PID.TID 0000.0001) %MON trcstat_ptracer46_max        =   8.8153867181972601E-04
(PID.TID 0000.0001) %MON trcstat_ptracer46_min        =   0.0000000000000000E+00
(PID.TID 0000.0001) %MON trcstat_ptracer46_mean       =   2.6284899836225207E-05
(PID.TID 0000.0001) %MON trcstat_ptracer46_sd         =   1.3780694875415345E-04
(PID.TID 0000.0001) %MON trcstat_ptracer46_del2       =   0.0000000000000000E+00
(PID.TID 0000.0001) %MON trcstat_ptracer47_max        =   8.8153867181972601E-04
(PID.TID 0000.0001) %MON trcstat_ptracer47_min        =   0.0000000000000000E+00
(PID.TID 0000.0001) %MON trcstat_ptracer47_mean       =   2.6284899836225207E-05
(PID.TID 0000.0001) %MON trcstat_ptracer47_sd         =   1.3780694875415345E-04
(PID.TID 0000.0001) %MON trcstat_ptracer47_del2       =   0.0000000000000000E+00
(PID.TID 0000.0001) %MON trcstat_ptracer48_max        =   8.8153867181972601E-04
(PID.TID 0000.0001) %MON trcstat_ptracer48_min        =   0.0000000000000000E+00
(PID.TID 0000.0001) %MON trcstat_ptracer48_mean       =   2.6284899836225207E-05
(PID.TID 0000.0001) %MON trcstat_ptracer48_sd         =   1.3780694875415345E-04
(PID.TID 0000.0001) %MON trcstat_ptracer48_del2       =   0.0000000000000000E+00
(PID.TID 0000.0001) %MON trcstat_ptracer49_max        =   8.8153867181972601E-04
(PID.TID 0000.0001) %MON trcstat_ptracer49_min        =   0.0000000000000000E+00
(PID.TID 0000.0001) %MON trcstat_ptracer49_mean       =   2.6284899836225207E-05
(PID.TID 0000.0001) %MON trcstat_ptracer49_sd         =   1.3780694875415345E-04
(PID.TID 0000.0001) %MON trcstat_ptracer49_del2       =   0.0000000000000000E+00
(PID.TID 0000.0001) %MON trcstat_ptracer50_max        =   8.8153867181972601E-04
(PID.TID 0000.0001) %MON trcstat_ptracer50_min        =   0.0000000000000000E+00
(PID.TID 0000.0001) %MON trcstat_ptracer50_mean       =   2.6284899836225207E-05
(PID.TID 0000.0001) %MON trcstat_ptracer50_sd         =   1.3780694875415345E-04
(PID.TID 0000.0001) %MON trcstat_ptracer50_del2       =   0.0000000000000000E+00
(PID.TID 0000.0001) %MON trcstat_ptracer51_max        =   8.8153867181972601E-04
(PID.TID 0000.0001) %MON trcstat_ptracer51_min        =   0.0000000000000000E+00
(PID.TID 0000.0001) %MON trcstat_ptracer51_mean       =   2.6284899836225207E-05
(PID.TID 0000.0001) %MON trcstat_ptracer51_sd         =   1.3780694875415345E-04
(PID.TID 0000.0001) %MON trcstat_ptracer51_del2       =   0.0000000000000000E+00
(PID.TID 0000.0001) %MON trcstat_ptracer52_max        =   8.8153867181972601E-04
(PID.TID 0000.0001) %MON trcstat_ptracer52_min        =   0.0000000000000000E+00
(PID.TID 0000.0001) %MON trcstat_ptracer52_mean       =   2.6284899836225207E-05
(PID.TID 0000.0001) %MON trcstat_ptracer52_sd         =   1.3780694875415345E-04
(PID.TID 0000.0001) %MON trcstat_ptracer52_del2       =   0.0000000000000000E+00
(PID.TID 0000.0001) %MON trcstat_ptracer53_max        =   8.8153867181972601E-04
(PID.TID 0000.0001) %MON trcstat_ptracer53_min        =   0.0000000000000000E+00
(PID.TID 0000.0001) %MON trcstat_ptracer53_mean       =   2.6284899836225207E-05
(PID.TID 0000.0001) %MON trcstat_ptracer53_sd         =   1.3780694875415345E-04
(PID.TID 0000.0001) %MON trcstat_ptracer53_del2       =   0.0000000000000000E+00
(PID.TID 0000.0001) %MON trcstat_ptracer54_max        =   8.8153867181972601E-04
(PID.TID 0000.0001) %MON trcstat_ptracer54_min        =   0.0000000000000000E+00
(PID.TID 0000.0001) %MON trcstat_ptracer54_mean       =   2.6284899836225207E-05
(PID.TID 0000.0001) %MON trcstat_ptracer54_sd         =   1.3780694875415345E-04
(PID.TID 0000.0001) %MON trcstat_ptracer54_del2       =   0.0000000000000000E+00
(PID.TID 0000.0001) %MON trcstat_ptracer55_max        =   8.8153867181972601E-04
(PID.TID 0000.0001) %MON trcstat_ptracer55_min        =   0.0000000000000000E+00
(PID.TID 0000.0001) %MON trcstat_ptracer55_mean       =   2.6284899836225207E-05
(PID.TID 0000.0001) %MON trcstat_ptracer55_sd         =   1.3780694875415345E-04
(PID.TID 0000.0001) %MON trcstat_ptracer55_del2       =   0.0000000000000000E+00
(PID.TID 0000.0001) %MON trcstat_ptracer56_max        =   8.8153867181972601E-04
(PID.TID 0000.0001) %MON trcstat_ptracer56_min        =   0.0000000000000000E+00
(PID.TID 0000.0001) %MON trcstat_ptracer56_mean       =   2.6284899836225207E-05
(PID.TID 0000.0001) %MON trcstat_ptracer56_sd         =   1.3780694875415345E-04
(PID.TID 0000.0001) %MON trcstat_ptracer56_del2       =   0.0000000000000000E+00
(PID.TID 0000.0001) %MON trcstat_ptracer57_max        =   8.8153867181972601E-04
(PID.TID 0000.0001) %MON trcstat_ptracer57_min        =   0.0000000000000000E+00
(PID.TID 0000.0001) %MON trcstat_ptracer57_mean       =   2.6284899836225207E-05
(PID.TID 0000.0001) %MON trcstat_ptracer57_sd         =   1.3780694875415345E-04
(PID.TID 0000.0001) %MON trcstat_ptracer57_del2       =   0.0000000000000000E+00
(PID.TID 0000.0001) %MON trcstat_ptracer58_max        =   8.8153867181972601E-04
(PID.TID 0000.0001) %MON trcstat_ptracer58_min        =   0.0000000000000000E+00
(PID.TID 0000.0001) %MON trcstat_ptracer58_mean       =   2.6284899836225207E-05
(PID.TID 0000.0001) %MON trcstat_ptracer58_sd         =   1.3780694875415345E-04
(PID.TID 0000.0001) %MON trcstat_ptracer58_del2       =   0.0000000000000000E+00
(PID.TID 0000.0001) %MON trcstat_ptracer59_max        =   8.8153867181972601E-04
(PID.TID 0000.0001) %MON trcstat_ptracer59_min        =   0.0000000000000000E+00
(PID.TID 0000.0001) %MON trcstat_ptracer59_mean       =   2.6284899836225207E-05
(PID.TID 0000.0001) %MON trcstat_ptracer59_sd         =   1.3780694875415345E-04
(PID.TID 0000.0001) %MON trcstat_ptracer59_del2       =   0.0000000000000000E+00
(PID.TID 0000.0001) %MON trcstat_ptracer60_max        =   8.8153867181972601E-04
(PID.TID 0000.0001) %MON trcstat_ptracer60_min        =   0.0000000000000000E+00
(PID.TID 0000.0001) %MON trcstat_ptracer60_mean       =   2.6284899836225207E-05
(PID.TID 0000.0001) %MON trcstat_ptracer60_sd         =   1.3780694875415345E-04
(PID.TID 0000.0001) %MON trcstat_ptracer60_del2       =   0.0000000000000000E+00
(PID.TID 0000.0001) %MON trcstat_ptracer61_max        =   8.8153867181972601E-04
(PID.TID 0000.0001) %MON trcstat_ptracer61_min        =   0.0000000000000000E+00
(PID.TID 0000.0001) %MON trcstat_ptracer61_mean       =   2.6284899836225207E-05
(PID.TID 0000.0001) %MON trcstat_ptracer61_sd         =   1.3780694875415345E-04
(PID.TID 0000.0001) %MON trcstat_ptracer61_del2       =   0.0000000000000000E+00
(PID.TID 0000.0001) %MON trcstat_ptracer62_max        =   8.8153867181972601E-04
(PID.TID 0000.0001) %MON trcstat_ptracer62_min        =   0.0000000000000000E+00
(PID.TID 0000.0001) %MON trcstat_ptracer62_mean       =   2.6284899836225207E-05
(PID.TID 0000.0001) %MON trcstat_ptracer62_sd         =   1.3780694875415345E-04
(PID.TID 0000.0001) %MON trcstat_ptracer62_del2       =   0.0000000000000000E+00
(PID.TID 0000.0001) %MON trcstat_ptracer63_max        =   8.8153867181972601E-04
(PID.TID 0000.0001) %MON trcstat_ptracer63_min        =   0.0000000000000000E+00
(PID.TID 0000.0001) %MON trcstat_ptracer63_mean       =   2.6284899836225207E-05
(PID.TID 0000.0001) %MON trcstat_ptracer63_sd         =   1.3780694875415345E-04
(PID.TID 0000.0001) %MON trcstat_ptracer63_del2       =   0.0000000000000000E+00
(PID.TID 0000.0001) %MON trcstat_ptracer64_max        =   8.8153867181972601E-04
(PID.TID 0000.0001) %MON trcstat_ptracer64_min        =   0.0000000000000000E+00
(PID.TID 0000.0001) %MON trcstat_ptracer64_mean       =   2.6284899836225207E-05
(PID.TID 0000.0001) %MON trcstat_ptracer64_sd         =   1.3780694875415345E-04
(PID.TID 0000.0001) %MON trcstat_ptracer64_del2       =   0.0000000000000000E+00
(PID.TID 0000.0001) %MON trcstat_ptracer65_max        =   8.8153867181972601E-04
(PID.TID 0000.0001) %MON trcstat_ptracer65_min        =   0.0000000000000000E+00
(PID.TID 0000.0001) %MON trcstat_ptracer65_mean       =   2.6284899836225207E-05
(PID.TID 0000.0001) %MON trcstat_ptracer65_sd         =   1.3780694875415345E-04
(PID.TID 0000.0001) %MON trcstat_ptracer65_del2       =   0.0000000000000000E+00
(PID.TID 0000.0001) %MON trcstat_ptracer66_max        =   8.8153867181972601E-04
(PID.TID 0000.0001) %MON trcstat_ptracer66_min        =   0.0000000000000000E+00
(PID.TID 0000.0001) %MON trcstat_ptracer66_mean       =   2.6284899836225207E-05
(PID.TID 0000.0001) %MON trcstat_ptracer66_sd         =   1.3780694875415345E-04
(PID.TID 0000.0001) %MON trcstat_ptracer66_del2       =   0.0000000000000000E+00
(PID.TID 0000.0001) %MON trcstat_ptracer67_max        =   8.8153867181972601E-04
(PID.TID 0000.0001) %MON trcstat_ptracer67_min        =   0.0000000000000000E+00
(PID.TID 0000.0001) %MON trcstat_ptracer67_mean       =   2.6284899836225207E-05
(PID.TID 0000.0001) %MON trcstat_ptracer67_sd         =   1.3780694875415345E-04
(PID.TID 0000.0001) %MON trcstat_ptracer67_del2       =   0.0000000000000000E+00
(PID.TID 0000.0001) %MON trcstat_ptracer68_max        =   8.8153867181972601E-04
(PID.TID 0000.0001) %MON trcstat_ptracer68_min        =   0.0000000000000000E+00
(PID.TID 0000.0001) %MON trcstat_ptracer68_mean       =   2.6284899836225207E-05
(PID.TID 0000.0001) %MON trcstat_ptracer68_sd         =   1.3780694875415345E-04
(PID.TID 0000.0001) %MON trcstat_ptracer68_del2       =   0.0000000000000000E+00
(PID.TID 0000.0001) %MON trcstat_ptracer69_max        =   8.8153867181972601E-04
(PID.TID 0000.0001) %MON trcstat_ptracer69_min        =   0.0000000000000000E+00
(PID.TID 0000.0001) %MON trcstat_ptracer69_mean       =   2.6284899836225207E-05
(PID.TID 0000.0001) %MON trcstat_ptracer69_sd         =   1.3780694875415345E-04
(PID.TID 0000.0001) %MON trcstat_ptracer69_del2       =   0.0000000000000000E+00
(PID.TID 0000.0001) %MON trcstat_ptracer70_max        =   8.8153867181972601E-04
(PID.TID 0000.0001) %MON trcstat_ptracer70_min        =   0.0000000000000000E+00
(PID.TID 0000.0001) %MON trcstat_ptracer70_mean       =   2.6284899836225207E-05
(PID.TID 0000.0001) %MON trcstat_ptracer70_sd         =   1.3780694875415345E-04
(PID.TID 0000.0001) %MON trcstat_ptracer70_del2       =   0.0000000000000000E+00
(PID.TID 0000.0001) %MON trcstat_ptracer71_max        =   8.8153867181972601E-04
(PID.TID 0000.0001) %MON trcstat_ptracer71_min        =   0.0000000000000000E+00
(PID.TID 0000.0001) %MON trcstat_ptracer71_mean       =   2.6284899836225207E-05
(PID.TID 0000.0001) %MON trcstat_ptracer71_sd         =   1.3780694875415345E-04
(PID.TID 0000.0001) %MON trcstat_ptracer71_del2       =   0.0000000000000000E+00
(PID.TID 0000.0001) %MON trcstat_ptracer72_max        =   8.8153867181972601E-04
(PID.TID 0000.0001) %MON trcstat_ptracer72_min        =   0.0000000000000000E+00
(PID.TID 0000.0001) %MON trcstat_ptracer72_mean       =   2.6284899836225207E-05
(PID.TID 0000.0001) %MON trcstat_ptracer72_sd         =   1.3780694875415345E-04
(PID.TID 0000.0001) %MON trcstat_ptracer72_del2       =   0.0000000000000000E+00
(PID.TID 0000.0001) %MON trcstat_ptracer73_max        =   8.8153867181972601E-04
(PID.TID 0000.0001) %MON trcstat_ptracer73_min        =   0.0000000000000000E+00
(PID.TID 0000.0001) %MON trcstat_ptracer73_mean       =   2.6284899836225207E-05
(PID.TID 0000.0001) %MON trcstat_ptracer73_sd         =   1.3780694875415345E-04
(PID.TID 0000.0001) %MON trcstat_ptracer73_del2       =   0.0000000000000000E+00
(PID.TID 0000.0001) %MON trcstat_ptracer74_max        =   8.8153867181972601E-04
(PID.TID 0000.0001) %MON trcstat_ptracer74_min        =   0.0000000000000000E+00
(PID.TID 0000.0001) %MON trcstat_ptracer74_mean       =   2.6284899836225207E-05
(PID.TID 0000.0001) %MON trcstat_ptracer74_sd         =   1.3780694875415345E-04
(PID.TID 0000.0001) %MON trcstat_ptracer74_del2       =   0.0000000000000000E+00
(PID.TID 0000.0001) %MON trcstat_ptracer75_max        =   8.8153867181972601E-04
(PID.TID 0000.0001) %MON trcstat_ptracer75_min        =   0.0000000000000000E+00
(PID.TID 0000.0001) %MON trcstat_ptracer75_mean       =   2.6284899836225207E-05
(PID.TID 0000.0001) %MON trcstat_ptracer75_sd         =   1.3780694875415345E-04
(PID.TID 0000.0001) %MON trcstat_ptracer75_del2       =   0.0000000000000000E+00
(PID.TID 0000.0001) %MON trcstat_ptracer76_max        =   8.8153867181972601E-04
(PID.TID 0000.0001) %MON trcstat_ptracer76_min        =   0.0000000000000000E+00
(PID.TID 0000.0001) %MON trcstat_ptracer76_mean       =   2.6284899836225207E-05
(PID.TID 0000.0001) %MON trcstat_ptracer76_sd         =   1.3780694875415345E-04
(PID.TID 0000.0001) %MON trcstat_ptracer76_del2       =   0.0000000000000000E+00
(PID.TID 0000.0001) %MON trcstat_ptracer77_max        =   8.8153867181972601E-04
(PID.TID 0000.0001) %MON trcstat_ptracer77_min        =   0.0000000000000000E+00
(PID.TID 0000.0001) %MON trcstat_ptracer77_mean       =   2.6284899836225207E-05
(PID.TID 0000.0001) %MON trcstat_ptracer77_sd         =   1.3780694875415345E-04
(PID.TID 0000.0001) %MON trcstat_ptracer77_del2       =   0.0000000000000000E+00
(PID.TID 0000.0001) %MON trcstat_ptracer78_max        =   8.8153867181972601E-04
(PID.TID 0000.0001) %MON trcstat_ptracer78_min        =   0.0000000000000000E+00
(PID.TID 0000.0001) %MON trcstat_ptracer78_mean       =   2.6284899836225207E-05
(PID.TID 0000.0001) %MON trcstat_ptracer78_sd         =   1.3780694875415345E-04
(PID.TID 0000.0001) %MON trcstat_ptracer78_del2       =   0.0000000000000000E+00
(PID.TID 0000.0001) %MON trcstat_ptracer79_max        =   8.8153867181972601E-04
(PID.TID 0000.0001) %MON trcstat_ptracer79_min        =   0.0000000000000000E+00
(PID.TID 0000.0001) %MON trcstat_ptracer79_mean       =   2.6284899836225207E-05
(PID.TID 0000.0001) %MON trcstat_ptracer79_sd         =   1.3780694875415345E-04
(PID.TID 0000.0001) %MON trcstat_ptracer79_del2       =   0.0000000000000000E+00
(PID.TID 0000.0001) %MON trcstat_ptracer80_max        =   8.8153867181972601E-04
(PID.TID 0000.0001) %MON trcstat_ptracer80_min        =   0.0000000000000000E+00
(PID.TID 0000.0001) %MON trcstat_ptracer80_mean       =   2.6284899836225207E-05
(PID.TID 0000.0001) %MON trcstat_ptracer80_sd         =   1.3780694875415345E-04
(PID.TID 0000.0001) %MON trcstat_ptracer80_del2       =   0.0000000000000000E+00
(PID.TID 0000.0001) %MON trcstat_ptracer81_max        =   8.8153867181972601E-04
(PID.TID 0000.0001) %MON trcstat_ptracer81_min        =   0.0000000000000000E+00
(PID.TID 0000.0001) %MON trcstat_ptracer81_mean       =   2.6284899836225207E-05
(PID.TID 0000.0001) %MON trcstat_ptracer81_sd         =   1.3780694875415345E-04
(PID.TID 0000.0001) %MON trcstat_ptracer81_del2       =   0.0000000000000000E+00
(PID.TID 0000.0001) %MON trcstat_ptracer82_max        =   8.8153867181972601E-04
(PID.TID 0000.0001) %MON trcstat_ptracer82_min        =   0.0000000000000000E+00
(PID.TID 0000.0001) %MON trcstat_ptracer82_mean       =   2.6284899836225207E-05
(PID.TID 0000.0001) %MON trcstat_ptracer82_sd         =   1.3780694875415345E-04
(PID.TID 0000.0001) %MON trcstat_ptracer82_del2       =   0.0000000000000000E+00
(PID.TID 0000.0001) %MON trcstat_ptracer83_max        =   8.8153867181972601E-04
(PID.TID 0000.0001) %MON trcstat_ptracer83_min        =   0.0000000000000000E+00
(PID.TID 0000.0001) %MON trcstat_ptracer83_mean       =   2.6284899836225207E-05
(PID.TID 0000.0001) %MON trcstat_ptracer83_sd         =   1.3780694875415345E-04
(PID.TID 0000.0001) %MON trcstat_ptracer83_del2       =   0.0000000000000000E+00
(PID.TID 0000.0001) %MON trcstat_ptracer84_max        =   8.8153867181972601E-04
(PID.TID 0000.0001) %MON trcstat_ptracer84_min        =   0.0000000000000000E+00
(PID.TID 0000.0001) %MON trcstat_ptracer84_mean       =   2.6284899836225207E-05
(PID.TID 0000.0001) %MON trcstat_ptracer84_sd         =   1.3780694875415345E-04
(PID.TID 0000.0001) %MON trcstat_ptracer84_del2       =   0.0000000000000000E+00
(PID.TID 0000.0001) %MON trcstat_ptracer85_max        =   8.8153867181972601E-04
(PID.TID 0000.0001) %MON trcstat_ptracer85_min        =   0.0000000000000000E+00
(PID.TID 0000.0001) %MON trcstat_ptracer85_mean       =   2.6284899836225207E-05
(PID.TID 0000.0001) %MON trcstat_ptracer85_sd         =   1.3780694875415345E-04
(PID.TID 0000.0001) %MON trcstat_ptracer85_del2       =   0.0000000000000000E+00
(PID.TID 0000.0001) %MON trcstat_ptracer86_max        =   8.8153867181972601E-04
(PID.TID 0000.0001) %MON trcstat_ptracer86_min        =   0.0000000000000000E+00
(PID.TID 0000.0001) %MON trcstat_ptracer86_mean       =   2.6284899836225207E-05
(PID.TID 0000.0001) %MON trcstat_ptracer86_sd         =   1.3780694875415345E-04
(PID.TID 0000.0001) %MON trcstat_ptracer86_del2       =   0.0000000000000000E+00
(PID.TID 0000.0001) %MON trcstat_ptracer87_max        =   8.8153867181972601E-04
(PID.TID 0000.0001) %MON trcstat_ptracer87_min        =   0.0000000000000000E+00
(PID.TID 0000.0001) %MON trcstat_ptracer87_mean       =   2.6284899836225207E-05
(PID.TID 0000.0001) %MON trcstat_ptracer87_sd         =   1.3780694875415345E-04
(PID.TID 0000.0001) %MON trcstat_ptracer87_del2       =   0.0000000000000000E+00
(PID.TID 0000.0001) %MON trcstat_ptracer88_max        =   8.8153867181972601E-04
(PID.TID 0000.0001) %MON trcstat_ptracer88_min        =   0.0000000000000000E+00
(PID.TID 0000.0001) %MON trcstat_ptracer88_mean       =   2.6284899836225207E-05
(PID.TID 0000.0001) %MON trcstat_ptracer88_sd         =   1.3780694875415345E-04
(PID.TID 0000.0001) %MON trcstat_ptracer88_del2       =   0.0000000000000000E+00
(PID.TID 0000.0001) %MON trcstat_ptracer89_max        =   8.8153867181972601E-04
(PID.TID 0000.0001) %MON trcstat_ptracer89_min        =   0.0000000000000000E+00
(PID.TID 0000.0001) %MON trcstat_ptracer89_mean       =   2.6284899836225207E-05
(PID.TID 0000.0001) %MON trcstat_ptracer89_sd         =   1.3780694875415345E-04
(PID.TID 0000.0001) %MON trcstat_ptracer89_del2       =   0.0000000000000000E+00
(PID.TID 0000.0001) %MON trcstat_ptracer90_max        =   8.8153867181972601E-04
(PID.TID 0000.0001) %MON trcstat_ptracer90_min        =   0.0000000000000000E+00
(PID.TID 0000.0001) %MON trcstat_ptracer90_mean       =   2.6284899836225207E-05
(PID.TID 0000.0001) %MON trcstat_ptracer90_sd         =   1.3780694875415345E-04
(PID.TID 0000.0001) %MON trcstat_ptracer90_del2       =   0.0000000000000000E+00
(PID.TID 0000.0001) %MON trcstat_ptracer91_max        =   8.8153867181972601E-04
(PID.TID 0000.0001) %MON trcstat_ptracer91_min        =   0.0000000000000000E+00
(PID.TID 0000.0001) %MON trcstat_ptracer91_mean       =   2.6284899836225207E-05
(PID.TID 0000.0001) %MON trcstat_ptracer91_sd         =   1.3780694875415345E-04
(PID.TID 0000.0001) %MON trcstat_ptracer91_del2       =   0.0000000000000000E+00
(PID.TID 0000.0001) %MON trcstat_ptracer92_max        =   8.8153867181972601E-04
(PID.TID 0000.0001) %MON trcstat_ptracer92_min        =   0.0000000000000000E+00
(PID.TID 0000.0001) %MON trcstat_ptracer92_mean       =   2.6284899836225207E-05
(PID.TID 0000.0001) %MON trcstat_ptracer92_sd         =   1.3780694875415345E-04
(PID.TID 0000.0001) %MON trcstat_ptracer92_del2       =   0.0000000000000000E+00
(PID.TID 0000.0001) %MON trcstat_ptracer93_max        =   8.8153867181972601E-04
(PID.TID 0000.0001) %MON trcstat_ptracer93_min        =   0.0000000000000000E+00
(PID.TID 0000.0001) %MON trcstat_ptracer93_mean       =   2.6284899836225207E-05
(PID.TID 0000.0001) %MON trcstat_ptracer93_sd         =   1.3780694875415345E-04
(PID.TID 0000.0001) %MON trcstat_ptracer93_del2       =   0.0000000000000000E+00
(PID.TID 0000.0001) %MON trcstat_ptracer94_max        =   8.8153867181972601E-04
(PID.TID 0000.0001) %MON trcstat_ptracer94_min        =   0.0000000000000000E+00
(PID.TID 0000.0001) %MON trcstat_ptracer94_mean       =   2.6284899836225207E-05
(PID.TID 0000.0001) %MON trcstat_ptracer94_sd         =   1.3780694875415345E-04
(PID.TID 0000.0001) %MON trcstat_ptracer94_del2       =   0.0000000000000000E+00
(PID.TID 0000.0001) %MON trcstat_ptracer95_max        =   8.8153867181972601E-04
(PID.TID 0000.0001) %MON trcstat_ptracer95_min        =   0.0000000000000000E+00
(PID.TID 0000.0001) %MON trcstat_ptracer95_mean       =   2.6284899836225207E-05
(PID.TID 0000.0001) %MON trcstat_ptracer95_sd         =   1.3780694875415345E-04
(PID.TID 0000.0001) %MON trcstat_ptracer95_del2       =   0.0000000000000000E+00
(PID.TID 0000.0001) %MON trcstat_ptracer96_max        =   1.2432850748922419E-07
(PID.TID 0000.0001) %MON trcstat_ptracer96_min        =   0.0000000000000000E+00
(PID.TID 0000.0001) %MON trcstat_ptracer96_mean       =   1.6442399905699555E-08
(PID.TID 0000.0001) %MON trcstat_ptracer96_sd         =   3.0074086738691421E-08
(PID.TID 0000.0001) %MON trcstat_ptracer96_del2       =   0.0000000000000000E+00
(PID.TID 0000.0001) %MON trcstat_ptracer97_max        =   1.2432850748922419E-07
(PID.TID 0000.0001) %MON trcstat_ptracer97_min        =   0.0000000000000000E+00
(PID.TID 0000.0001) %MON trcstat_ptracer97_mean       =   1.6442399905699555E-08
(PID.TID 0000.0001) %MON trcstat_ptracer97_sd         =   3.0074086738691421E-08
(PID.TID 0000.0001) %MON trcstat_ptracer97_del2       =   0.0000000000000000E+00
(PID.TID 0000.0001) %MON time_tsnumber                =                     1
(PID.TID 0000.0001) %MON time_secondsf                =   3.6000000000000000E+03
(PID.TID 0000.0001) %MON dynstat_eta_max              =   0.0000000000000000E+00
(PID.TID 0000.0001) %MON dynstat_eta_min              =   0.0000000000000000E+00
(PID.TID 0000.0001) %MON dynstat_eta_mean             =   0.0000000000000000E+00
(PID.TID 0000.0001) %MON dynstat_eta_sd               =   0.0000000000000000E+00
(PID.TID 0000.0001) %MON dynstat_eta_del2             =   0.0000000000000000E+00
(PID.TID 0000.0001) %MON dynstat_uvel_max             =   0.0000000000000000E+00
(PID.TID 0000.0001) %MON dynstat_uvel_min             =   0.0000000000000000E+00
(PID.TID 0000.0001) %MON dynstat_uvel_mean            =   0.0000000000000000E+00
(PID.TID 0000.0001) %MON dynstat_uvel_sd              =   0.0000000000000000E+00
(PID.TID 0000.0001) %MON dynstat_uvel_del2            =   0.0000000000000000E+00
(PID.TID 0000.0001) %MON dynstat_vvel_max             =   0.0000000000000000E+00
(PID.TID 0000.0001) %MON dynstat_vvel_min             =   0.0000000000000000E+00
(PID.TID 0000.0001) %MON dynstat_vvel_mean            =   0.0000000000000000E+00
(PID.TID 0000.0001) %MON dynstat_vvel_sd              =   0.0000000000000000E+00
(PID.TID 0000.0001) %MON dynstat_vvel_del2            =   0.0000000000000000E+00
(PID.TID 0000.0001) %MON dynstat_wvel_max             =   0.0000000000000000E+00
(PID.TID 0000.0001) %MON dynstat_wvel_min             =   0.0000000000000000E+00
(PID.TID 0000.0001) %MON dynstat_wvel_mean            =   0.0000000000000000E+00
(PID.TID 0000.0001) %MON dynstat_wvel_sd              =   0.0000000000000000E+00
(PID.TID 0000.0001) %MON dynstat_wvel_del2            =   0.0000000000000000E+00
(PID.TID 0000.0001) %MON dynstat_theta_max            =   2.6335817374515290E+01
(PID.TID 0000.0001) %MON dynstat_theta_min            =   2.6737003185747747E+00
(PID.TID 0000.0001) %MON dynstat_theta_mean           =   5.4735670012030040E+00
(PID.TID 0000.0001) %MON dynstat_theta_sd             =   5.1970860626953339E+00
(PID.TID 0000.0001) %MON dynstat_theta_del2           =   0.0000000000000000E+00
(PID.TID 0000.0001) %MON dynstat_salt_max             =   3.5000000000000000E+01
(PID.TID 0000.0001) %MON dynstat_salt_min             =   3.5000000000000000E+01
(PID.TID 0000.0001) %MON dynstat_salt_mean            =   3.5000000000000007E+01
(PID.TID 0000.0001) %MON dynstat_salt_sd              =   7.1054273576010019E-15
(PID.TID 0000.0001) %MON dynstat_salt_del2            =   0.0000000000000000E+00
(PID.TID 0000.0001) %MON dynstat_sst_max              =   2.6335817374515290E+01
(PID.TID 0000.0001) %MON dynstat_sst_min              =   2.6335817374515290E+01
(PID.TID 0000.0001) %MON dynstat_sst_mean             =   2.6335817374515290E+01
(PID.TID 0000.0001) %MON dynstat_sst_sd               =   0.0000000000000000E+00
(PID.TID 0000.0001) %MON dynstat_sst_del2             =   0.0000000000000000E+00
(PID.TID 0000.0001) %MON dynstat_sss_max              =   3.5000000000000000E+01
(PID.TID 0000.0001) %MON dynstat_sss_min              =   3.5000000000000000E+01
(PID.TID 0000.0001) %MON dynstat_sss_mean             =   3.5000000000000000E+01
(PID.TID 0000.0001) %MON dynstat_sss_sd               =   0.0000000000000000E+00
(PID.TID 0000.0001) %MON dynstat_sss_del2             =   0.0000000000000000E+00
(PID.TID 0000.0001) %MON forcing_qnet_max             =   0.0000000000000000E+00
(PID.TID 0000.0001) %MON forcing_qnet_min             =   0.0000000000000000E+00
(PID.TID 0000.0001) %MON forcing_qnet_mean            =   0.0000000000000000E+00
(PID.TID 0000.0001) %MON forcing_qnet_sd              =   0.0000000000000000E+00
(PID.TID 0000.0001) %MON forcing_qnet_del2            =   0.0000000000000000E+00
(PID.TID 0000.0001) %MON forcing_qsw_max              =   0.0000000000000000E+00
(PID.TID 0000.0001) %MON forcing_qsw_min              =   0.0000000000000000E+00
(PID.TID 0000.0001) %MON forcing_qsw_mean             =   0.0000000000000000E+00
(PID.TID 0000.0001) %MON forcing_qsw_sd               =   0.0000000000000000E+00
(PID.TID 0000.0001) %MON forcing_qsw_del2             =   0.0000000000000000E+00
(PID.TID 0000.0001) %MON forcing_empmr_max            =   0.0000000000000000E+00
(PID.TID 0000.0001) %MON forcing_empmr_min            =   0.0000000000000000E+00
(PID.TID 0000.0001) %MON forcing_empmr_mean           =   0.0000000000000000E+00
(PID.TID 0000.0001) %MON forcing_empmr_sd             =   0.0000000000000000E+00
(PID.TID 0000.0001) %MON forcing_empmr_del2           =   0.0000000000000000E+00
(PID.TID 0000.0001) %MON forcing_fu_max               =   0.0000000000000000E+00
(PID.TID 0000.0001) %MON forcing_fu_min               =   0.0000000000000000E+00
(PID.TID 0000.0001) %MON forcing_fu_mean              =   0.0000000000000000E+00
(PID.TID 0000.0001) %MON forcing_fu_sd                =   0.0000000000000000E+00
(PID.TID 0000.0001) %MON forcing_fu_del2              =   0.0000000000000000E+00
(PID.TID 0000.0001) %MON forcing_fv_max               =   0.0000000000000000E+00
(PID.TID 0000.0001) %MON forcing_fv_min               =   0.0000000000000000E+00
(PID.TID 0000.0001) %MON forcing_fv_mean              =   0.0000000000000000E+00
(PID.TID 0000.0001) %MON forcing_fv_sd                =   0.0000000000000000E+00
(PID.TID 0000.0001) %MON forcing_fv_del2              =   0.0000000000000000E+00
(PID.TID 0000.0001) %MON advcfl_uvel_max              =   0.0000000000000000E+00
(PID.TID 0000.0001) %MON advcfl_vvel_max              =   0.0000000000000000E+00
(PID.TID 0000.0001) %MON advcfl_wvel_max              =   0.0000000000000000E+00
(PID.TID 0000.0001) %MON advcfl_W_hf_max              =   0.0000000000000000E+00
(PID.TID 0000.0001) %MON pe_b_mean                    =   0.0000000000000000E+00
(PID.TID 0000.0001) %MON ke_max                       =   0.0000000000000000E+00
(PID.TID 0000.0001) %MON ke_mean                      =   0.0000000000000000E+00
(PID.TID 0000.0001) %MON ke_vol                       =   4.1199767883484609E+13
(PID.TID 0000.0001) %MON vort_r_min                   =   0.0000000000000000E+00
(PID.TID 0000.0001) %MON vort_r_max                   =   0.0000000000000000E+00
(PID.TID 0000.0001) %MON vort_a_mean                  =  -4.5067801836624727E-05
(PID.TID 0000.0001) %MON vort_a_sd                    =  -4.1359030627651384E-25
(PID.TID 0000.0001) %MON vort_p_mean                  =  -4.5067801836624727E-05
(PID.TID 0000.0001) %MON vort_p_sd                    =   0.0000000000000000E+00
(PID.TID 0000.0001) %MON surfExpan_theta_mean         =   0.0000000000000000E+00
(PID.TID 0000.0001) %MON surfExpan_salt_mean          =   0.0000000000000000E+00
(PID.TID 0000.0001) %MON trcstat_ptracer01_max        =                      NAN
(PID.TID 0000.0001) %MON trcstat_ptracer01_min        =                      NAN
(PID.TID 0000.0001) %MON trcstat_ptracer01_mean       =                      NAN
(PID.TID 0000.0001) %MON trcstat_ptracer01_sd         =                      NAN
(PID.TID 0000.0001) %MON trcstat_ptracer01_del2       =                      NAN
(PID.TID 0000.0001) %MON trcstat_ptracer02_max        =   2.5604947924257007E-02
(PID.TID 0000.0001) %MON trcstat_ptracer02_min        =   1.8763301829745543E-07
(PID.TID 0000.0001) %MON trcstat_ptracer02_mean       =   6.0488072927497127E-04
(PID.TID 0000.0001) %MON trcstat_ptracer02_sd         =   3.2469666002861563E-03
(PID.TID 0000.0001) %MON trcstat_ptracer02_del2       =   0.0000000000000000E+00
(PID.TID 0000.0001) %MON trcstat_ptracer03_max        =   1.8255253876453836E-02
(PID.TID 0000.0001) %MON trcstat_ptracer03_min        =   3.8791489719393813E-06
(PID.TID 0000.0001) %MON trcstat_ptracer03_mean       =   6.0469250685862028E-04
(PID.TID 0000.0001) %MON trcstat_ptracer03_sd         =   1.9426792753151848E-03
(PID.TID 0000.0001) %MON trcstat_ptracer03_del2       =   0.0000000000000000E+00
(PID.TID 0000.0001) %MON trcstat_ptracer04_max        =   3.3903497946886560E+01
(PID.TID 0000.0001) %MON trcstat_ptracer04_min        =   4.6345580584156068E-02
(PID.TID 0000.0001) %MON trcstat_ptracer04_mean       =   2.3502390269794660E+01
(PID.TID 0000.0001) %MON trcstat_ptracer04_sd         =   7.8162012915373884E+00
(PID.TID 0000.0001) %MON trcstat_ptracer04_del2       =   0.0000000000000000E+00
(PID.TID 0000.0001) %MON trcstat_ptracer05_max        =   2.2436999316291510E+00
(PID.TID 0000.0001) %MON trcstat_ptracer05_min        =   2.1025170256275991E-01
(PID.TID 0000.0001) %MON trcstat_ptracer05_mean       =   1.5821338560406146E+00
(PID.TID 0000.0001) %MON trcstat_ptracer05_sd         =   4.6735034631686800E-01
(PID.TID 0000.0001) %MON trcstat_ptracer05_del2       =   0.0000000000000000E+00
(PID.TID 0000.0001) %MON trcstat_ptracer06_max        =   3.9387401347897352E+01
(PID.TID 0000.0001) %MON trcstat_ptracer06_min        =   1.2247991304023729E+00
(PID.TID 0000.0001) %MON trcstat_ptracer06_mean       =   2.9621889388419476E+01
(PID.TID 0000.0001) %MON trcstat_ptracer06_sd         =   1.1270586823796863E+01
(PID.TID 0000.0001) %MON trcstat_ptracer06_del2       =   0.0000000000000000E+00
(PID.TID 0000.0001) %MON trcstat_ptracer07_max        =   1.3001301508774334E-03
(PID.TID 0000.0001) %MON trcstat_ptracer07_min        =   1.2999853935924228E-03
(PID.TID 0000.0001) %MON trcstat_ptracer07_mean       =   1.2999859152419435E-03
(PID.TID 0000.0001) %MON trcstat_ptracer07_sd         =   7.7295374155178688E-09
(PID.TID 0000.0001) %MON trcstat_ptracer07_del2       =   0.0000000000000000E+00
(PID.TID 0000.0001) %MON trcstat_ptracer08_max        =   6.1353527693044763E-01
(PID.TID 0000.0001) %MON trcstat_ptracer08_min        =   2.1626253518310592E-33
(PID.TID 0000.0001) %MON trcstat_ptracer08_mean       =   2.5762952428303235E-02
(PID.TID 0000.0001) %MON trcstat_ptracer08_sd         =   1.1091122202228060E-01
(PID.TID 0000.0001) %MON trcstat_ptracer08_del2       =   0.0000000000000000E+00
(PID.TID 0000.0001) %MON trcstat_ptracer09_max        =   8.1804703590726349E-02
(PID.TID 0000.0001) %MON trcstat_ptracer09_min        =   2.8835004691080788E-34
(PID.TID 0000.0001) %MON trcstat_ptracer09_mean       =   3.4350603237737645E-03
(PID.TID 0000.0001) %MON trcstat_ptracer09_sd         =   1.4788162936304080E-02
(PID.TID 0000.0001) %MON trcstat_ptracer09_del2       =   0.0000000000000000E+00
(PID.TID 0000.0001) %MON trcstat_ptracer10_max        =   5.1127939744203968E-03
(PID.TID 0000.0001) %MON trcstat_ptracer10_min        =   1.8021877931925492E-35
(PID.TID 0000.0001) %MON trcstat_ptracer10_mean       =   2.1469127023586028E-04
(PID.TID 0000.0001) %MON trcstat_ptracer10_sd         =   9.2426018351900500E-04
(PID.TID 0000.0001) %MON trcstat_ptracer10_del2       =   0.0000000000000000E+00
(PID.TID 0000.0001) %MON trcstat_ptracer11_max        =   5.1127936147087289E-06
(PID.TID 0000.0001) %MON trcstat_ptracer11_min        =   1.8021850847722475E-38
(PID.TID 0000.0001) %MON trcstat_ptracer11_mean       =   2.1469127054223584E-07
(PID.TID 0000.0001) %MON trcstat_ptracer11_sd         =   9.2426018317724553E-07
(PID.TID 0000.0001) %MON trcstat_ptracer11_del2       =   0.0000000000000000E+00
(PID.TID 0000.0001) %MON trcstat_ptracer12_max        =   3.2667984171676205E-02
(PID.TID 0000.0001) %MON trcstat_ptracer12_min        =   1.4086367136037866E-04
(PID.TID 0000.0001) %MON trcstat_ptracer12_mean       =   9.4670153887028569E-03
(PID.TID 0000.0001) %MON trcstat_ptracer12_sd         =   1.1587812571471696E-02
(PID.TID 0000.0001) %MON trcstat_ptracer12_del2       =   0.0000000000000000E+00
(PID.TID 0000.0001) %MON trcstat_ptracer13_max        =   4.3557312228901610E-03
(PID.TID 0000.0001) %MON trcstat_ptracer13_min        =   1.8781822848050488E-05
(PID.TID 0000.0001) %MON trcstat_ptracer13_mean       =   1.2622687184937142E-03
(PID.TID 0000.0001) %MON trcstat_ptracer13_sd         =   1.5450416761962262E-03
(PID.TID 0000.0001) %MON trcstat_ptracer13_del2       =   0.0000000000000000E+00
(PID.TID 0000.0001) %MON trcstat_ptracer14_max        =   2.7223320143063506E-04
(PID.TID 0000.0001) %MON trcstat_ptracer14_min        =   1.1738639280031555E-06
(PID.TID 0000.0001) %MON trcstat_ptracer14_mean       =   7.8891794905857135E-05
(PID.TID 0000.0001) %MON trcstat_ptracer14_sd         =   9.6565104762264139E-05
(PID.TID 0000.0001) %MON trcstat_ptracer14_del2       =   0.0000000000000000E+00
(PID.TID 0000.0001) %MON trcstat_ptracer15_max        =   1.6249560323348945E-02
(PID.TID 0000.0001) %MON trcstat_ptracer15_min        =   1.1386925448277799E-03
(PID.TID 0000.0001) %MON trcstat_ptracer15_mean       =   5.4889823684651342E-03
(PID.TID 0000.0001) %MON trcstat_ptracer15_sd         =   5.1715467239950349E-03
(PID.TID 0000.0001) %MON trcstat_ptracer15_del2       =   0.0000000000000000E+00
(PID.TID 0000.0001) %MON trcstat_ptracer16_max        =   2.7223321719345594E-07
(PID.TID 0000.0001) %MON trcstat_ptracer16_min        =   1.1738637993409111E-09
(PID.TID 0000.0001) %MON trcstat_ptracer16_mean       =   7.8891795432038208E-08
(PID.TID 0000.0001) %MON trcstat_ptracer16_sd         =   9.6565106819749876E-08
(PID.TID 0000.0001) %MON trcstat_ptracer16_del2       =   0.0000000000000000E+00
(PID.TID 0000.0001) %MON trcstat_ptracer17_max        =                      NAN
(PID.TID 0000.0001) %MON trcstat_ptracer17_min        =                      NAN
(PID.TID 0000.0001) %MON trcstat_ptracer17_mean       =                      NAN
(PID.TID 0000.0001) %MON trcstat_ptracer17_sd         =                      NAN
(PID.TID 0000.0001) %MON trcstat_ptracer17_del2       =                      NAN
(PID.TID 0000.0001) %MON trcstat_ptracer18_max        =   8.7784040723694670E-04
(PID.TID 0000.0001) %MON trcstat_ptracer18_min        =   1.1455106270729970E-34
(PID.TID 0000.0001) %MON trcstat_ptracer18_mean       =   2.6186026026495473E-05
(PID.TID 0000.0001) %MON trcstat_ptracer18_sd         =   1.3722425365739736E-04
(PID.TID 0000.0001) %MON trcstat_ptracer18_del2       =   0.0000000000000000E+00
(PID.TID 0000.0001) %MON trcstat_ptracer19_max        =   8.8252791291970980E-04
(PID.TID 0000.0001) %MON trcstat_ptracer19_min        =   3.9452493772007623E-37
(PID.TID 0000.0001) %MON trcstat_ptracer19_mean       =   2.6308270244964742E-05
(PID.TID 0000.0001) %MON trcstat_ptracer19_sd         =   1.3798656378373000E-04
(PID.TID 0000.0001) %MON trcstat_ptracer19_del2       =   0.0000000000000000E+00
(PID.TID 0000.0001) %MON trcstat_ptracer20_max        =   8.7784040723698259E-04
(PID.TID 0000.0001) %MON trcstat_ptracer20_min        =   1.1455106270729970E-34
(PID.TID 0000.0001) %MON trcstat_ptracer20_mean       =   2.6175379415818170E-05
(PID.TID 0000.0001) %MON trcstat_ptracer20_sd         =   1.3721453424022856E-04
(PID.TID 0000.0001) %MON trcstat_ptracer20_del2       =   0.0000000000000000E+00
(PID.TID 0000.0001) %MON trcstat_ptracer21_max        =   8.8605230573734562E-04
(PID.TID 0000.0001) %MON trcstat_ptracer21_min        =   1.1455106270729970E-34
(PID.TID 0000.0001) %MON trcstat_ptracer21_mean       =   2.6423240501503994E-05
(PID.TID 0000.0001) %MON trcstat_ptracer21_sd         =   1.3848649840528102E-04
(PID.TID 0000.0001) %MON trcstat_ptracer21_del2       =   0.0000000000000000E+00
(PID.TID 0000.0001) %MON trcstat_ptracer22_max        =   8.8513508426185336E-04
(PID.TID 0000.0001) %MON trcstat_ptracer22_min        =   3.9452493772007623E-37
(PID.TID 0000.0001) %MON trcstat_ptracer22_mean       =   2.6377269791085812E-05
(PID.TID 0000.0001) %MON trcstat_ptracer22_sd         =   1.3834556938896675E-04
(PID.TID 0000.0001) %MON trcstat_ptracer22_del2       =   0.0000000000000000E+00
(PID.TID 0000.0001) %MON trcstat_ptracer23_max        =   8.7785894917781937E-04
(PID.TID 0000.0001) %MON trcstat_ptracer23_min        =   3.9452493772007623E-37
(PID.TID 0000.0001) %MON trcstat_ptracer23_mean       =   2.6175379956653003E-05
(PID.TID 0000.0001) %MON trcstat_ptracer23_sd         =   1.3723205438115744E-04
(PID.TID 0000.0001) %MON trcstat_ptracer23_del2       =   0.0000000000000000E+00
(PID.TID 0000.0001) %MON trcstat_ptracer24_max        =   8.8197003525756774E-04
(PID.TID 0000.0001) %MON trcstat_ptracer24_min        =   3.9452493772007623E-37
(PID.TID 0000.0001) %MON trcstat_ptracer24_mean       =   2.6290671926260126E-05
(PID.TID 0000.0001) %MON trcstat_ptracer24_sd         =   1.3787893216864655E-04
(PID.TID 0000.0001) %MON trcstat_ptracer24_del2       =   0.0000000000000000E+00
(PID.TID 0000.0001) %MON trcstat_ptracer25_max        =   8.7785894917772884E-04
(PID.TID 0000.0001) %MON trcstat_ptracer25_min        =   3.9452493772007623E-37
(PID.TID 0000.0001) %MON trcstat_ptracer25_mean       =   2.6180706950353363E-05
(PID.TID 0000.0001) %MON trcstat_ptracer25_sd         =   1.3725218200973693E-04
(PID.TID 0000.0001) %MON trcstat_ptracer25_del2       =   0.0000000000000000E+00
(PID.TID 0000.0001) %MON trcstat_ptracer26_max        =   8.7952649836154175E-04
(PID.TID 0000.0001) %MON trcstat_ptracer26_min        =   3.9452493772007623E-37
(PID.TID 0000.0001) %MON trcstat_ptracer26_mean       =   2.6250409443968897E-05
(PID.TID 0000.0001) %MON trcstat_ptracer26_sd         =   1.3755902616850412E-04
(PID.TID 0000.0001) %MON trcstat_ptracer26_del2       =   0.0000000000000000E+00
(PID.TID 0000.0001) %MON trcstat_ptracer27_max        =   8.8654108734090862E-04
(PID.TID 0000.0001) %MON trcstat_ptracer27_min        =   3.9452493772007623E-37
(PID.TID 0000.0001) %MON trcstat_ptracer27_mean       =   2.6420381351374024E-05
(PID.TID 0000.0001) %MON trcstat_ptracer27_sd         =   1.3857038454966137E-04
(PID.TID 0000.0001) %MON trcstat_ptracer27_del2       =   0.0000000000000000E+00
(PID.TID 0000.0001) %MON trcstat_ptracer28_max        =   8.7785894917795316E-04
(PID.TID 0000.0001) %MON trcstat_ptracer28_min        =   3.9452493772007623E-37
(PID.TID 0000.0001) %MON trcstat_ptracer28_mean       =   2.6175379413914758E-05
(PID.TID 0000.0001) %MON trcstat_ptracer28_sd         =   1.3723205447393899E-04
(PID.TID 0000.0001) %MON trcstat_ptracer28_del2       =   0.0000000000000000E+00
(PID.TID 0000.0001) %MON trcstat_ptracer29_max        =   8.7785894917772678E-04
(PID.TID 0000.0001) %MON trcstat_ptracer29_min        =   3.9452493772007623E-37
(PID.TID 0000.0001) %MON trcstat_ptracer29_mean       =   2.6175379413907728E-05
(PID.TID 0000.0001) %MON trcstat_ptracer29_sd         =   1.3723205447390538E-04
(PID.TID 0000.0001) %MON trcstat_ptracer29_del2       =   0.0000000000000000E+00
(PID.TID 0000.0001) %MON trcstat_ptracer30_max        =   8.7784040716883203E-04
(PID.TID 0000.0001) %MON trcstat_ptracer30_min        =   1.1455106270729970E-34
(PID.TID 0000.0001) %MON trcstat_ptracer30_mean       =   2.6175395190505218E-05
(PID.TID 0000.0001) %MON trcstat_ptracer30_sd         =   1.3721453130366396E-04
(PID.TID 0000.0001) %MON trcstat_ptracer30_del2       =   0.0000000000000000E+00
(PID.TID 0000.0001) %MON trcstat_ptracer31_max        =   8.7785894917775226E-04
(PID.TID 0000.0001) %MON trcstat_ptracer31_min        =   3.9452493772007623E-37
(PID.TID 0000.0001) %MON trcstat_ptracer31_mean       =   2.6175379413908954E-05
(PID.TID 0000.0001) %MON trcstat_ptracer31_sd         =   1.3723205447391064E-04
(PID.TID 0000.0001) %MON trcstat_ptracer31_del2       =   0.0000000000000000E+00
(PID.TID 0000.0001) %MON trcstat_ptracer32_max        =   8.8784451770576990E-04
(PID.TID 0000.0001) %MON trcstat_ptracer32_min        =   3.9452493772007623E-37
(PID.TID 0000.0001) %MON trcstat_ptracer32_mean       =   2.6458659895214596E-05
(PID.TID 0000.0001) %MON trcstat_ptracer32_sd         =   1.3877240645590372E-04
(PID.TID 0000.0001) %MON trcstat_ptracer32_del2       =   0.0000000000000000E+00
(PID.TID 0000.0001) %MON trcstat_ptracer33_max        =   8.7784040723700297E-04
(PID.TID 0000.0001) %MON trcstat_ptracer33_min        =   1.1455106270729970E-34
(PID.TID 0000.0001) %MON trcstat_ptracer33_mean       =   2.6175620574954125E-05
(PID.TID 0000.0001) %MON trcstat_ptracer33_sd         =   1.3721449748183337E-04
(PID.TID 0000.0001) %MON trcstat_ptracer33_del2       =   0.0000000000000000E+00
(PID.TID 0000.0001) %MON trcstat_ptracer34_max        =   8.7784040723700265E-04
(PID.TID 0000.0001) %MON trcstat_ptracer34_min        =   1.1455106270729970E-34
(PID.TID 0000.0001) %MON trcstat_ptracer34_mean       =   2.6175379415818753E-05
(PID.TID 0000.0001) %MON trcstat_ptracer34_sd         =   1.3721453424023167E-04
(PID.TID 0000.0001) %MON trcstat_ptracer34_del2       =   0.0000000000000000E+00
(PID.TID 0000.0001) %MON trcstat_ptracer35_max        =   8.7785894917797311E-04
(PID.TID 0000.0001) %MON trcstat_ptracer35_min        =   3.9452493772007623E-37
(PID.TID 0000.0001) %MON trcstat_ptracer35_mean       =   2.6175379413915344E-05
(PID.TID 0000.0001) %MON trcstat_ptracer35_sd         =   1.3723205447394206E-04
(PID.TID 0000.0001) %MON trcstat_ptracer35_del2       =   0.0000000000000000E+00
(PID.TID 0000.0001) %MON trcstat_ptracer36_max        =   8.8205447828339917E-04
(PID.TID 0000.0001) %MON trcstat_ptracer36_min        =   1.1455106270729970E-34
(PID.TID 0000.0001) %MON trcstat_ptracer36_mean       =   2.6309328936201927E-05
(PID.TID 0000.0001) %MON trcstat_ptracer36_sd         =   1.3786466049465129E-04
(PID.TID 0000.0001) %MON trcstat_ptracer36_del2       =   0.0000000000000000E+00
(PID.TID 0000.0001) %MON trcstat_ptracer37_max        =   8.7784040716887366E-04
(PID.TID 0000.0001) %MON trcstat_ptracer37_min        =   1.1455106270729970E-34
(PID.TID 0000.0001) %MON trcstat_ptracer37_mean       =   2.6175379415493922E-05
(PID.TID 0000.0001) %MON trcstat_ptracer37_sd         =   1.3721453422967916E-04
(PID.TID 0000.0001) %MON trcstat_ptracer37_del2       =   0.0000000000000000E+00
(PID.TID 0000.0001) %MON trcstat_ptracer38_max        =   8.7929022962798180E-04
(PID.TID 0000.0001) %MON trcstat_ptracer38_min        =   1.1455106270729970E-34
(PID.TID 0000.0001) %MON trcstat_ptracer38_mean       =   2.6248667575102769E-05
(PID.TID 0000.0001) %MON trcstat_ptracer38_sd         =   1.3751064302678314E-04
(PID.TID 0000.0001) %MON trcstat_ptracer38_del2       =   0.0000000000000000E+00
(PID.TID 0000.0001) %MON trcstat_ptracer39_max        =   8.8763159048625684E-04
(PID.TID 0000.0001) %MON trcstat_ptracer39_min        =   1.1455106270729970E-34
(PID.TID 0000.0001) %MON trcstat_ptracer39_mean       =   2.6470326673520627E-05
(PID.TID 0000.0001) %MON trcstat_ptracer39_sd         =   1.3877714525130667E-04
(PID.TID 0000.0001) %MON trcstat_ptracer39_del2       =   0.0000000000000000E+00
(PID.TID 0000.0001) %MON trcstat_ptracer40_max        =   8.7785894917780105E-04
(PID.TID 0000.0001) %MON trcstat_ptracer40_min        =   3.9452493772007623E-37
(PID.TID 0000.0001) %MON trcstat_ptracer40_mean       =   2.6175379846167242E-05
(PID.TID 0000.0001) %MON trcstat_ptracer40_sd         =   1.3723205440866864E-04
(PID.TID 0000.0001) %MON trcstat_ptracer40_del2       =   0.0000000000000000E+00
(PID.TID 0000.0001) %MON trcstat_ptracer41_max        =   8.7784040716878833E-04
(PID.TID 0000.0001) %MON trcstat_ptracer41_min        =   1.1455106270729970E-34
(PID.TID 0000.0001) %MON trcstat_ptracer41_mean       =   2.6175379413912475E-05
(PID.TID 0000.0001) %MON trcstat_ptracer41_sd         =   1.3721453422996710E-04
(PID.TID 0000.0001) %MON trcstat_ptracer41_del2       =   0.0000000000000000E+00
(PID.TID 0000.0001) %MON trcstat_ptracer42_max        =   8.7785894917773849E-04
(PID.TID 0000.0001) %MON trcstat_ptracer42_min        =   3.9452493772007623E-37
(PID.TID 0000.0001) %MON trcstat_ptracer42_mean       =   2.6175379663867472E-05
(PID.TID 0000.0001) %MON trcstat_ptracer42_sd         =   1.3723205443497399E-04
(PID.TID 0000.0001) %MON trcstat_ptracer42_del2       =   0.0000000000000000E+00
(PID.TID 0000.0001) %MON trcstat_ptracer43_max        =   8.7785894917771898E-04
(PID.TID 0000.0001) %MON trcstat_ptracer43_min        =   3.9452493772007623E-37
(PID.TID 0000.0001) %MON trcstat_ptracer43_mean       =   2.6175379413907501E-05
(PID.TID 0000.0001) %MON trcstat_ptracer43_sd         =   1.3723205447390414E-04
(PID.TID 0000.0001) %MON trcstat_ptracer43_del2       =   0.0000000000000000E+00
(PID.TID 0000.0001) %MON trcstat_ptracer44_max        =   8.7785894917775031E-04
(PID.TID 0000.0001) %MON trcstat_ptracer44_min        =   3.9452493772007623E-37
(PID.TID 0000.0001) %MON trcstat_ptracer44_mean       =   2.6175379413908900E-05
(PID.TID 0000.0001) %MON trcstat_ptracer44_sd         =   1.3723205447391034E-04
(PID.TID 0000.0001) %MON trcstat_ptracer44_del2       =   0.0000000000000000E+00
(PID.TID 0000.0001) %MON trcstat_ptracer45_max        =   8.7785894917774890E-04
(PID.TID 0000.0001) %MON trcstat_ptracer45_min        =   3.9452493772007623E-37
(PID.TID 0000.0001) %MON trcstat_ptracer45_mean       =   2.6175379413908856E-05
(PID.TID 0000.0001) %MON trcstat_ptracer45_sd         =   1.3723205447391010E-04
(PID.TID 0000.0001) %MON trcstat_ptracer45_del2       =   0.0000000000000000E+00
(PID.TID 0000.0001) %MON trcstat_ptracer46_max        =   8.8696418646672516E-04
(PID.TID 0000.0001) %MON trcstat_ptracer46_min        =   1.1455106270729970E-34
(PID.TID 0000.0001) %MON trcstat_ptracer46_mean       =   2.6445383038220162E-05
(PID.TID 0000.0001) %MON trcstat_ptracer46_sd         =   1.3866329727240352E-04
(PID.TID 0000.0001) %MON trcstat_ptracer46_del2       =   0.0000000000000000E+00
(PID.TID 0000.0001) %MON trcstat_ptracer47_max        =   8.7785894917801865E-04
(PID.TID 0000.0001) %MON trcstat_ptracer47_min        =   3.9452493772007623E-37
(PID.TID 0000.0001) %MON trcstat_ptracer47_mean       =   2.6175379413916673E-05
(PID.TID 0000.0001) %MON trcstat_ptracer47_sd         =   1.3723205447394921E-04
(PID.TID 0000.0001) %MON trcstat_ptracer47_del2       =   0.0000000000000000E+00
(PID.TID 0000.0001) %MON trcstat_ptracer48_max        =   8.8722195187969073E-04
(PID.TID 0000.0001) %MON trcstat_ptracer48_min        =   1.1455106270729970E-34
(PID.TID 0000.0001) %MON trcstat_ptracer48_mean       =   2.6440363178250719E-05
(PID.TID 0000.0001) %MON trcstat_ptracer48_sd         =   1.3868146139935341E-04
(PID.TID 0000.0001) %MON trcstat_ptracer48_del2       =   0.0000000000000000E+00
(PID.TID 0000.0001) %MON trcstat_ptracer49_max        =   8.8765202115471834E-04
(PID.TID 0000.0001) %MON trcstat_ptracer49_min        =   3.9452493772007623E-37
(PID.TID 0000.0001) %MON trcstat_ptracer49_mean       =   2.6452985318567859E-05
(PID.TID 0000.0001) %MON trcstat_ptracer49_sd         =   1.3872113694702210E-04
(PID.TID 0000.0001) %MON trcstat_ptracer49_del2       =   0.0000000000000000E+00
(PID.TID 0000.0001) %MON trcstat_ptracer50_max        =   8.8302229131382443E-04
(PID.TID 0000.0001) %MON trcstat_ptracer50_min        =   1.1455106270729970E-34
(PID.TID 0000.0001) %MON trcstat_ptracer50_mean       =   2.6333000754462397E-05
(PID.TID 0000.0001) %MON trcstat_ptracer50_sd         =   1.3799807621313022E-04
(PID.TID 0000.0001) %MON trcstat_ptracer50_del2       =   0.0000000000000000E+00
(PID.TID 0000.0001) %MON trcstat_ptracer51_max        =   8.8464044741823485E-04
(PID.TID 0000.0001) %MON trcstat_ptracer51_min        =   3.9452493772007623E-37
[...]
(PID.TID 0000.0001) %MON trcstat_ptracer48_del2       =   0.0000000000000000E+00
(PID.TID 0000.0001) %MON trcstat_ptracer49_max        =   9.0641678277478190E-04
(PID.TID 0000.0001) %MON trcstat_ptracer49_min        =   1.3739850072295993E-35
(PID.TID 0000.0001) %MON trcstat_ptracer49_mean       =   2.6975038958920662E-05
(PID.TID 0000.0001) %MON trcstat_ptracer49_sd         =   1.4154440300509383E-04
(PID.TID 0000.0001) %MON trcstat_ptracer49_del2       =   0.0000000000000000E+00
(PID.TID 0000.0001) %MON trcstat_ptracer50_max        =   8.8759060259525305E-04
(PID.TID 0000.0001) %MON trcstat_ptracer50_min        =   1.6992725818008525E-27
(PID.TID 0000.0001) %MON trcstat_ptracer50_mean       =   2.6485593887082762E-05
(PID.TID 0000.0001) %MON trcstat_ptracer50_sd         =   1.3860355243295992E-04
(PID.TID 0000.0001) %MON trcstat_ptracer50_del2       =   0.0000000000000000E+00
(PID.TID 0000.0001) %MON trcstat_ptracer51_max        =   8.9410279442709358E-04
(PID.TID 0000.0001) %MON trcstat_ptracer51_min        =   1.3739850072295993E-35
(PID.TID 0000.0001) %MON trcstat_ptracer51_mean       =   2.6555424065487826E-05
(PID.TID 0000.0001) %MON trcstat_ptracer51_sd         =   1.3954723663519225E-04
(PID.TID 0000.0001) %MON trcstat_ptracer51_del2       =   0.0000000000000000E+00
(PID.TID 0000.0001) %MON trcstat_ptracer52_max        =   8.6691171288798719E-04
(PID.TID 0000.0001) %MON trcstat_ptracer52_min        =   1.3739850072295993E-35
(PID.TID 0000.0001) %MON trcstat_ptracer52_mean       =   2.5849548560077953E-05
(PID.TID 0000.0001) %MON trcstat_ptracer52_sd         =   1.3552172203861571E-04
(PID.TID 0000.0001) %MON trcstat_ptracer52_del2       =   0.0000000000000000E+00
(PID.TID 0000.0001) %MON trcstat_ptracer53_max        =   8.6683865064484029E-04
(PID.TID 0000.0001) %MON trcstat_ptracer53_min        =   1.6992725818009077E-27
(PID.TID 0000.0001) %MON trcstat_ptracer53_mean       =   2.5849548567579734E-05
(PID.TID 0000.0001) %MON trcstat_ptracer53_sd         =   1.3545288047764651E-04
(PID.TID 0000.0001) %MON trcstat_ptracer53_del2       =   0.0000000000000000E+00
(PID.TID 0000.0001) %MON trcstat_ptracer54_max        =   8.6691171288786186E-04
(PID.TID 0000.0001) %MON trcstat_ptracer54_min        =   1.3739850072295993E-35
(PID.TID 0000.0001) %MON trcstat_ptracer54_mean       =   2.5849548560074270E-05
(PID.TID 0000.0001) %MON trcstat_ptracer54_sd         =   1.3552172203859617E-04
(PID.TID 0000.0001) %MON trcstat_ptracer54_del2       =   0.0000000000000000E+00
(PID.TID 0000.0001) %MON trcstat_ptracer55_max        =   8.6691171288860085E-04
(PID.TID 0000.0001) %MON trcstat_ptracer55_min        =   1.3739850072295993E-35
(PID.TID 0000.0001) %MON trcstat_ptracer55_mean       =   2.5849548560095920E-05
(PID.TID 0000.0001) %MON trcstat_ptracer55_sd         =   1.3552172203871131E-04
(PID.TID 0000.0001) %MON trcstat_ptracer55_del2       =   0.0000000000000000E+00
(PID.TID 0000.0001) %MON trcstat_ptracer56_max        =   8.6691171288819232E-04
(PID.TID 0000.0001) %MON trcstat_ptracer56_min        =   1.3739850072295993E-35
(PID.TID 0000.0001) %MON trcstat_ptracer56_mean       =   2.5849548560083967E-05
(PID.TID 0000.0001) %MON trcstat_ptracer56_sd         =   1.3552172203864761E-04
(PID.TID 0000.0001) %MON trcstat_ptracer56_del2       =   0.0000000000000000E+00
(PID.TID 0000.0001) %MON trcstat_ptracer57_max        =   8.6683865064533057E-04
(PID.TID 0000.0001) %MON trcstat_ptracer57_min        =   1.6992725818009077E-27
(PID.TID 0000.0001) %MON trcstat_ptracer57_mean       =   2.5850514471168776E-05
(PID.TID 0000.0001) %MON trcstat_ptracer57_sd         =   1.3545273293608570E-04
(PID.TID 0000.0001) %MON trcstat_ptracer57_del2       =   0.0000000000000000E+00
(PID.TID 0000.0001) %MON trcstat_ptracer58_max        =   8.6691171288772644E-04
(PID.TID 0000.0001) %MON trcstat_ptracer58_min        =   1.3739850072295993E-35
(PID.TID 0000.0001) %MON trcstat_ptracer58_mean       =   2.5851061622730143E-05
(PID.TID 0000.0001) %MON trcstat_ptracer58_sd         =   1.3552150976344878E-04
(PID.TID 0000.0001) %MON trcstat_ptracer58_del2       =   0.0000000000000000E+00
(PID.TID 0000.0001) %MON trcstat_ptracer59_max        =   8.6683865037669823E-04
(PID.TID 0000.0001) %MON trcstat_ptracer59_min        =   1.6992725818008525E-27
(PID.TID 0000.0001) %MON trcstat_ptracer59_mean       =   2.5851526786021397E-05
(PID.TID 0000.0001) %MON trcstat_ptracer59_sd         =   1.3545259329311200E-04
(PID.TID 0000.0001) %MON trcstat_ptracer59_del2       =   0.0000000000000000E+00
(PID.TID 0000.0001) %MON trcstat_ptracer60_max        =   8.6691171288859185E-04
(PID.TID 0000.0001) %MON trcstat_ptracer60_min        =   1.3739850072295993E-35
(PID.TID 0000.0001) %MON trcstat_ptracer60_mean       =   2.5886638354314686E-05
(PID.TID 0000.0001) %MON trcstat_ptracer60_sd         =   1.3555031622073402E-04
(PID.TID 0000.0001) %MON trcstat_ptracer60_del2       =   0.0000000000000000E+00
(PID.TID 0000.0001) %MON trcstat_ptracer61_max        =   8.6683865037644734E-04
(PID.TID 0000.0001) %MON trcstat_ptracer61_min        =   1.6992725818008525E-27
(PID.TID 0000.0001) %MON trcstat_ptracer61_mean       =   2.5849548632273075E-05
(PID.TID 0000.0001) %MON trcstat_ptracer61_sd         =   1.3545288042350346E-04
(PID.TID 0000.0001) %MON trcstat_ptracer61_del2       =   0.0000000000000000E+00
(PID.TID 0000.0001) %MON trcstat_ptracer62_max        =   8.8265059439006648E-04
(PID.TID 0000.0001) %MON trcstat_ptracer62_min        =   1.3739850072295993E-35
(PID.TID 0000.0001) %MON trcstat_ptracer62_mean       =   2.6219569495909927E-05
(PID.TID 0000.0001) %MON trcstat_ptracer62_sd         =   1.3774553512269037E-04
(PID.TID 0000.0001) %MON trcstat_ptracer62_del2       =   0.0000000000000000E+00
(PID.TID 0000.0001) %MON trcstat_ptracer63_max        =   9.0583736682622006E-04
(PID.TID 0000.0001) %MON trcstat_ptracer63_min        =   1.6992725818008525E-27
(PID.TID 0000.0001) %MON trcstat_ptracer63_mean       =   2.6973513676703662E-05
(PID.TID 0000.0001) %MON trcstat_ptracer63_sd         =   1.4157323000784698E-04
(PID.TID 0000.0001) %MON trcstat_ptracer63_del2       =   0.0000000000000000E+00
(PID.TID 0000.0001) %MON trcstat_ptracer64_max        =   8.6683865037685489E-04
(PID.TID 0000.0001) %MON trcstat_ptracer64_min        =   1.6992725818008525E-27
(PID.TID 0000.0001) %MON trcstat_ptracer64_mean       =   2.5849548560092258E-05
(PID.TID 0000.0001) %MON trcstat_ptracer64_sd         =   1.3545288043734224E-04
(PID.TID 0000.0001) %MON trcstat_ptracer64_del2       =   0.0000000000000000E+00
(PID.TID 0000.0001) %MON trcstat_ptracer65_max        =   8.6683865037678279E-04
(PID.TID 0000.0001) %MON trcstat_ptracer65_min        =   1.6992725818008525E-27
(PID.TID 0000.0001) %MON trcstat_ptracer65_mean       =   2.5850087809585251E-05
(PID.TID 0000.0001) %MON trcstat_ptracer65_sd         =   1.3545279270053980E-04
(PID.TID 0000.0001) %MON trcstat_ptracer65_del2       =   0.0000000000000000E+00
(PID.TID 0000.0001) %MON trcstat_ptracer66_max        =   8.6683865037665779E-04
(PID.TID 0000.0001) %MON trcstat_ptracer66_min        =   1.6992725818008525E-27
(PID.TID 0000.0001) %MON trcstat_ptracer66_mean       =   2.5849548560086416E-05
(PID.TID 0000.0001) %MON trcstat_ptracer66_sd         =   1.3545288043731159E-04
(PID.TID 0000.0001) %MON trcstat_ptracer66_del2       =   0.0000000000000000E+00
(PID.TID 0000.0001) %MON trcstat_ptracer67_max        =   8.8993252262752900E-04
(PID.TID 0000.0001) %MON trcstat_ptracer67_min        =   1.3739850072295993E-35
(PID.TID 0000.0001) %MON trcstat_ptracer67_mean       =   2.6565031707707895E-05
(PID.TID 0000.0001) %MON trcstat_ptracer67_sd         =   1.3917489366320276E-04
(PID.TID 0000.0001) %MON trcstat_ptracer67_del2       =   0.0000000000000000E+00
(PID.TID 0000.0001) %MON trcstat_ptracer68_max        =   8.6691171288873225E-04
(PID.TID 0000.0001) %MON trcstat_ptracer68_min        =   1.3739850072295993E-35
(PID.TID 0000.0001) %MON trcstat_ptracer68_mean       =   2.5849548560099752E-05
(PID.TID 0000.0001) %MON trcstat_ptracer68_sd         =   1.3552172203873180E-04
(PID.TID 0000.0001) %MON trcstat_ptracer68_del2       =   0.0000000000000000E+00
(PID.TID 0000.0001) %MON trcstat_ptracer69_max        =   8.6683865064528861E-04
(PID.TID 0000.0001) %MON trcstat_ptracer69_min        =   1.6992725818009077E-27
(PID.TID 0000.0001) %MON trcstat_ptracer69_mean       =   2.5849827088865660E-05
(PID.TID 0000.0001) %MON trcstat_ptracer69_sd         =   1.3545283436125653E-04
(PID.TID 0000.0001) %MON trcstat_ptracer69_del2       =   0.0000000000000000E+00
(PID.TID 0000.0001) %MON trcstat_ptracer70_max        =   8.6683865064508022E-04
(PID.TID 0000.0001) %MON trcstat_ptracer70_min        =   1.6992725818009077E-27
(PID.TID 0000.0001) %MON trcstat_ptracer70_mean       =   2.5851832662708671E-05
(PID.TID 0000.0001) %MON trcstat_ptracer70_sd         =   1.3545255612572757E-04
(PID.TID 0000.0001) %MON trcstat_ptracer70_del2       =   0.0000000000000000E+00
(PID.TID 0000.0001) %MON trcstat_ptracer71_max        =   8.6683865037644496E-04
(PID.TID 0000.0001) %MON trcstat_ptracer71_min        =   1.6992725818008525E-27
(PID.TID 0000.0001) %MON trcstat_ptracer71_mean       =   2.5849548560080074E-05
(PID.TID 0000.0001) %MON trcstat_ptracer71_sd         =   1.3545288043727849E-04
(PID.TID 0000.0001) %MON trcstat_ptracer71_del2       =   0.0000000000000000E+00
(PID.TID 0000.0001) %MON trcstat_ptracer72_max        =   9.0689593739764801E-04
(PID.TID 0000.0001) %MON trcstat_ptracer72_min        =   1.6992725818008525E-27
(PID.TID 0000.0001) %MON trcstat_ptracer72_mean       =   2.7047172782670746E-05
(PID.TID 0000.0001) %MON trcstat_ptracer72_sd         =   1.4179976085371962E-04
(PID.TID 0000.0001) %MON trcstat_ptracer72_del2       =   0.0000000000000000E+00
(PID.TID 0000.0001) %MON trcstat_ptracer73_max        =   8.6683865064529392E-04
(PID.TID 0000.0001) %MON trcstat_ptracer73_min        =   1.6992725818009077E-27
(PID.TID 0000.0001) %MON trcstat_ptracer73_mean       =   2.5849548567593114E-05
(PID.TID 0000.0001) %MON trcstat_ptracer73_sd         =   1.3545288047771715E-04
(PID.TID 0000.0001) %MON trcstat_ptracer73_del2       =   0.0000000000000000E+00
(PID.TID 0000.0001) %MON trcstat_ptracer74_max        =   9.0565899042776036E-04
(PID.TID 0000.0001) %MON trcstat_ptracer74_min        =   1.6992725818008525E-27
(PID.TID 0000.0001) %MON trcstat_ptracer74_mean       =   2.6888890659988210E-05
(PID.TID 0000.0001) %MON trcstat_ptracer74_sd         =   1.4133027147013037E-04
(PID.TID 0000.0001) %MON trcstat_ptracer74_del2       =   0.0000000000000000E+00
(PID.TID 0000.0001) %MON trcstat_ptracer75_max        =   8.8158794903048948E-04
(PID.TID 0000.0001) %MON trcstat_ptracer75_min        =   1.6992725818009077E-27
(PID.TID 0000.0001) %MON trcstat_ptracer75_mean       =   2.6377262726957037E-05
(PID.TID 0000.0001) %MON trcstat_ptracer75_sd         =   1.3789043580874708E-04
(PID.TID 0000.0001) %MON trcstat_ptracer75_del2       =   0.0000000000000000E+00
(PID.TID 0000.0001) %MON trcstat_ptracer76_max        =   8.6683865037701525E-04
(PID.TID 0000.0001) %MON trcstat_ptracer76_min        =   1.6992725818008525E-27
(PID.TID 0000.0001) %MON trcstat_ptracer76_mean       =   2.5884301755116870E-05
(PID.TID 0000.0001) %MON trcstat_ptracer76_sd         =   1.3547026900570275E-04
(PID.TID 0000.0001) %MON trcstat_ptracer76_del2       =   0.0000000000000000E+00
(PID.TID 0000.0001) %MON trcstat_ptracer77_max        =   8.7358396497702498E-04
(PID.TID 0000.0001) %MON trcstat_ptracer77_min        =   1.6992725818008525E-27
(PID.TID 0000.0001) %MON trcstat_ptracer77_mean       =   2.6154638300160049E-05
(PID.TID 0000.0001) %MON trcstat_ptracer77_sd         =   1.3673901937654703E-04
(PID.TID 0000.0001) %MON trcstat_ptracer77_del2       =   0.0000000000000000E+00
(PID.TID 0000.0001) %MON trcstat_ptracer78_max        =   8.6683865037672848E-04
(PID.TID 0000.0001) %MON trcstat_ptracer78_min        =   1.6992725818008525E-27
(PID.TID 0000.0001) %MON trcstat_ptracer78_mean       =   2.5849548560088527E-05
(PID.TID 0000.0001) %MON trcstat_ptracer78_sd         =   1.3545288043732262E-04
(PID.TID 0000.0001) %MON trcstat_ptracer78_del2       =   0.0000000000000000E+00
(PID.TID 0000.0001) %MON trcstat_ptracer79_max        =   8.6683865037640614E-04
(PID.TID 0000.0001) %MON trcstat_ptracer79_min        =   1.6992725818008525E-27
(PID.TID 0000.0001) %MON trcstat_ptracer79_mean       =   2.5850140611416324E-05
(PID.TID 0000.0001) %MON trcstat_ptracer79_sd         =   1.3545278433583154E-04
(PID.TID 0000.0001) %MON trcstat_ptracer79_del2       =   0.0000000000000000E+00
(PID.TID 0000.0001) %MON trcstat_ptracer80_max        =   8.9179273002667689E-04
(PID.TID 0000.0001) %MON trcstat_ptracer80_min        =   1.6992725818009077E-27
(PID.TID 0000.0001) %MON trcstat_ptracer80_mean       =   2.6582894563809578E-05
(PID.TID 0000.0001) %MON trcstat_ptracer80_sd         =   1.3918373501843031E-04
(PID.TID 0000.0001) %MON trcstat_ptracer80_del2       =   0.0000000000000000E+00
(PID.TID 0000.0001) %MON trcstat_ptracer81_max        =   8.6691171288769326E-04
(PID.TID 0000.0001) %MON trcstat_ptracer81_min        =   1.3739850072295993E-35
(PID.TID 0000.0001) %MON trcstat_ptracer81_mean       =   2.5849548560069300E-05
(PID.TID 0000.0001) %MON trcstat_ptracer81_sd         =   1.3552172203856985E-04
(PID.TID 0000.0001) %MON trcstat_ptracer81_del2       =   0.0000000000000000E+00
(PID.TID 0000.0001) %MON trcstat_ptracer82_max        =   8.6683865064486978E-04
(PID.TID 0000.0001) %MON trcstat_ptracer82_min        =   1.6992725818009077E-27
(PID.TID 0000.0001) %MON trcstat_ptracer82_mean       =   2.5879642439920561E-05
(PID.TID 0000.0001) %MON trcstat_ptracer82_sd         =   1.3546431727028038E-04
(PID.TID 0000.0001) %MON trcstat_ptracer82_del2       =   0.0000000000000000E+00
(PID.TID 0000.0001) %MON trcstat_ptracer83_max        =   8.6691171288744780E-04
(PID.TID 0000.0001) %MON trcstat_ptracer83_min        =   1.3739850072295993E-35
(PID.TID 0000.0001) %MON trcstat_ptracer83_mean       =   2.5849548560060538E-05
(PID.TID 0000.0001) %MON trcstat_ptracer83_sd         =   1.3552172203853854E-04
(PID.TID 0000.0001) %MON trcstat_ptracer83_del2       =   0.0000000000000000E+00
(PID.TID 0000.0001) %MON trcstat_ptracer84_max        =   8.6683865037664814E-04
(PID.TID 0000.0001) %MON trcstat_ptracer84_min        =   1.6992725818008525E-27
(PID.TID 0000.0001) %MON trcstat_ptracer84_mean       =   2.5849548560086125E-05
(PID.TID 0000.0001) %MON trcstat_ptracer84_sd         =   1.3545288043731010E-04
(PID.TID 0000.0001) %MON trcstat_ptracer84_del2       =   0.0000000000000000E+00
(PID.TID 0000.0001) %MON trcstat_ptracer85_max        =   8.7743123684583680E-04
(PID.TID 0000.0001) %MON trcstat_ptracer85_min        =   1.6992725818009077E-27
(PID.TID 0000.0001) %MON trcstat_ptracer85_mean       =   2.6286324326387665E-05
(PID.TID 0000.0001) %MON trcstat_ptracer85_sd         =   1.3736407494427356E-04
(PID.TID 0000.0001) %MON trcstat_ptracer85_del2       =   0.0000000000000000E+00
(PID.TID 0000.0001) %MON trcstat_ptracer86_max        =   8.9674779437048252E-04
(PID.TID 0000.0001) %MON trcstat_ptracer86_min        =   1.3739850072295993E-35
(PID.TID 0000.0001) %MON trcstat_ptracer86_mean       =   2.6717862663275072E-05
(PID.TID 0000.0001) %MON trcstat_ptracer86_sd         =   1.4021230769763982E-04
(PID.TID 0000.0001) %MON trcstat_ptracer86_del2       =   0.0000000000000000E+00
(PID.TID 0000.0001) %MON trcstat_ptracer87_max        =   8.6691171288769467E-04
(PID.TID 0000.0001) %MON trcstat_ptracer87_min        =   1.3739850072295993E-35
(PID.TID 0000.0001) %MON trcstat_ptracer87_mean       =   2.5849548560070004E-05
(PID.TID 0000.0001) %MON trcstat_ptracer87_sd         =   1.3552172203858370E-04
(PID.TID 0000.0001) %MON trcstat_ptracer87_del2       =   0.0000000000000000E+00
(PID.TID 0000.0001) %MON trcstat_ptracer88_max        =   8.6691171288754332E-04
(PID.TID 0000.0001) %MON trcstat_ptracer88_min        =   1.3739850072295993E-35
(PID.TID 0000.0001) %MON trcstat_ptracer88_mean       =   2.5849573019427185E-05
(PID.TID 0000.0001) %MON trcstat_ptracer88_sd         =   1.3552171954089780E-04
(PID.TID 0000.0001) %MON trcstat_ptracer88_del2       =   0.0000000000000000E+00
(PID.TID 0000.0001) %MON trcstat_ptracer89_max        =   8.6683865064530021E-04
(PID.TID 0000.0001) %MON trcstat_ptracer89_min        =   1.6992725818009077E-27
(PID.TID 0000.0001) %MON trcstat_ptracer89_mean       =   2.5849602347448754E-05
(PID.TID 0000.0001) %MON trcstat_ptracer89_sd         =   1.3545287050407628E-04
(PID.TID 0000.0001) %MON trcstat_ptracer89_del2       =   0.0000000000000000E+00
(PID.TID 0000.0001) %MON trcstat_ptracer90_max        =   8.6691171288765065E-04
(PID.TID 0000.0001) %MON trcstat_ptracer90_min        =   1.3739850072295993E-35
(PID.TID 0000.0001) %MON trcstat_ptracer90_mean       =   2.5849548560066379E-05
(PID.TID 0000.0001) %MON trcstat_ptracer90_sd         =   1.3552172203857107E-04
(PID.TID 0000.0001) %MON trcstat_ptracer90_del2       =   0.0000000000000000E+00
(PID.TID 0000.0001) %MON trcstat_ptracer91_max        =   8.7445711427277791E-04
(PID.TID 0000.0001) %MON trcstat_ptracer91_min        =   1.6992725818008525E-27
(PID.TID 0000.0001) %MON trcstat_ptracer91_mean       =   2.6195642512690834E-05
(PID.TID 0000.0001) %MON trcstat_ptracer91_sd         =   1.3691269772862915E-04
(PID.TID 0000.0001) %MON trcstat_ptracer91_del2       =   0.0000000000000000E+00
(PID.TID 0000.0001) %MON trcstat_ptracer92_max        =   8.6683865064487520E-04
(PID.TID 0000.0001) %MON trcstat_ptracer92_min        =   1.6992725818009077E-27
(PID.TID 0000.0001) %MON trcstat_ptracer92_mean       =   2.5849548567580764E-05
(PID.TID 0000.0001) %MON trcstat_ptracer92_sd         =   1.3545288047765196E-04
(PID.TID 0000.0001) %MON trcstat_ptracer92_del2       =   0.0000000000000000E+00
(PID.TID 0000.0001) %MON trcstat_ptracer93_max        =   9.0428260350962450E-04
(PID.TID 0000.0001) %MON trcstat_ptracer93_min        =   1.6992725818009077E-27
(PID.TID 0000.0001) %MON trcstat_ptracer93_mean       =   2.6952918360003527E-05
(PID.TID 0000.0001) %MON trcstat_ptracer93_sd         =   1.4132735255499047E-04
(PID.TID 0000.0001) %MON trcstat_ptracer93_del2       =   0.0000000000000000E+00
(PID.TID 0000.0001) %MON trcstat_ptracer94_max        =   8.6692567319204784E-04
(PID.TID 0000.0001) %MON trcstat_ptracer94_min        =   1.6992725818008525E-27
(PID.TID 0000.0001) %MON trcstat_ptracer94_mean       =   2.5991023206045113E-05
(PID.TID 0000.0001) %MON trcstat_ptracer94_sd         =   1.3589323926387000E-04
(PID.TID 0000.0001) %MON trcstat_ptracer94_del2       =   0.0000000000000000E+00
(PID.TID 0000.0001) %MON trcstat_ptracer95_max        =   8.9048262918503215E-04
(PID.TID 0000.0001) %MON trcstat_ptracer95_min        =   1.3739850072295993E-35
(PID.TID 0000.0001) %MON trcstat_ptracer95_mean       =   2.6496188507759487E-05
(PID.TID 0000.0001) %MON trcstat_ptracer95_sd         =   1.3919534927320964E-04
(PID.TID 0000.0001) %MON trcstat_ptracer95_del2       =   0.0000000000000000E+00
(PID.TID 0000.0001) %MON trcstat_ptracer96_max        =   1.2365306123205104E-07
(PID.TID 0000.0001) %MON trcstat_ptracer96_min        =   9.6539308657082408E-34
(PID.TID 0000.0001) %MON trcstat_ptracer96_mean       =   1.6351651661905831E-08
(PID.TID 0000.0001) %MON trcstat_ptracer96_sd         =   2.9908444596740761E-08
(PID.TID 0000.0001) %MON trcstat_ptracer96_del2       =   0.0000000000000000E+00
(PID.TID 0000.0001) %MON trcstat_ptracer97_max        =   1.2365582987371321E-07
(PID.TID 0000.0001) %MON trcstat_ptracer97_min        =   9.6539308657108751E-34
(PID.TID 0000.0001) %MON trcstat_ptracer97_mean       =   1.6351730392375224E-08
(PID.TID 0000.0001) %MON trcstat_ptracer97_sd         =   2.9908708468859854E-08
(PID.TID 0000.0001) %MON trcstat_ptracer97_del2       =   0.0000000000000000E+00
